<?xml version="1.0" encoding="UTF-8"?>

<!-- generated on Sun Jan 31 12:00:36 2016 by SUMO netconvert Version 0.19.0
<?xml version="1.0" encoding="UTF-8"?>

<configuration xmlns:xsi="http://www.w3.org/2001/XMLSchema-instance" xsi:noNamespaceSchemaLocation="http://sumo-sim.org/xsd/netconvertConfiguration.xsd">

    <input>
        <node-files value="city.nod.xml"/>
        <edge-files value="city.edg.xml"/>
    </input>

    <output>
        <output-file value="city.net.xml"/>
    </output>

</configuration>
-->

<net version="0.13" xmlns:xsi="http://www.w3.org/2001/XMLSchema-instance" xsi:noNamespaceSchemaLocation="http://sumo-sim.org/xsd/net_file.xsd">

    <location netOffset="0.00,0.00" convBoundary="0.00,0.00,4500.00,4500.00" origBoundary="0.00,0.00,4500.00,4500.00" projParameter="!"/>

    <edge id=":1_0" function="internal">
        <lane id=":1_0_0" index="0" speed="13.90" length="5.00" shape="2.55,494.35 2.74,495.71 3.33,496.68 4.29,497.26 5.65,497.45"/>
    </edge>
    <edge id=":1_1" function="internal">
        <lane id=":1_1_0" index="0" speed="13.90" length="7.15" shape="2.55,494.35 2.55,501.50"/>
    </edge>
    <edge id=":10_0" function="internal">
        <lane id=":10_0_0" index="0" speed="13.90" length="7.15" shape="498.50,-2.55 505.65,-2.55"/>
    </edge>
    <edge id=":10_1" function="internal">
        <lane id=":10_1_0" index="0" speed="13.90" length="5.79" shape="498.50,-2.55 500.27,-2.36 501.54,-1.78 502.30,-0.81 502.55,0.55"/>
    </edge>
    <edge id=":11_0" function="internal">
        <lane id=":11_0_0" index="0" speed="13.90" length="5.00" shape="502.55,494.35 502.74,495.71 503.33,496.68 504.29,497.26 505.65,497.45"/>
    </edge>
    <edge id=":11_1" function="internal">
        <lane id=":11_1_0" index="0" speed="13.90" length="6.20" shape="502.55,494.35 502.55,500.55"/>
    </edge>
    <edge id=":11_2" function="internal">
        <lane id=":11_2_0" index="0" speed="13.90" length="6.20" shape="499.45,497.45 505.65,497.45"/>
    </edge>
    <edge id=":11_3" function="internal">
        <lane id=":11_3_0" index="0" speed="13.90" length="5.00" shape="499.45,497.45 500.81,497.64 501.77,498.22 502.36,499.19 502.55,500.55"/>
    </edge>
    <edge id=":12_0" function="internal">
        <lane id=":12_0_0" index="0" speed="13.90" length="5.00" shape="502.55,994.35 502.74,995.71 503.33,996.67 504.29,997.26 505.65,997.45"/>
    </edge>
    <edge id=":12_1" function="internal">
        <lane id=":12_1_0" index="0" speed="13.90" length="6.20" shape="502.55,994.35 502.55,1000.55"/>
    </edge>
    <edge id=":12_2" function="internal">
        <lane id=":12_2_0" index="0" speed="13.90" length="6.20" shape="499.45,997.45 505.65,997.45"/>
    </edge>
    <edge id=":12_3" function="internal">
        <lane id=":12_3_0" index="0" speed="13.90" length="5.00" shape="499.45,997.45 500.81,997.64 501.78,998.23 502.36,999.19 502.55,1000.55"/>
    </edge>
    <edge id=":13_0" function="internal">
        <lane id=":13_0_0" index="0" speed="13.90" length="5.00" shape="502.55,1494.35 502.74,1495.71 503.33,1496.67 504.29,1497.26 505.65,1497.45"/>
    </edge>
    <edge id=":13_1" function="internal">
        <lane id=":13_1_0" index="0" speed="13.90" length="6.20" shape="502.55,1494.35 502.55,1500.55"/>
    </edge>
    <edge id=":13_2" function="internal">
        <lane id=":13_2_0" index="0" speed="13.90" length="6.20" shape="499.45,1497.45 505.65,1497.45"/>
    </edge>
    <edge id=":13_3" function="internal">
        <lane id=":13_3_0" index="0" speed="13.90" length="5.00" shape="499.45,1497.45 500.81,1497.64 501.77,1498.23 502.36,1499.19 502.55,1500.55"/>
    </edge>
    <edge id=":14_0" function="internal">
        <lane id=":14_0_0" index="0" speed="13.90" length="5.00" shape="502.55,1994.35 502.74,1995.71 503.33,1996.67 504.29,1997.26 505.65,1997.45"/>
    </edge>
    <edge id=":14_1" function="internal">
        <lane id=":14_1_0" index="0" speed="13.90" length="6.20" shape="502.55,1994.35 502.55,2000.55"/>
    </edge>
    <edge id=":14_2" function="internal">
        <lane id=":14_2_0" index="0" speed="13.90" length="6.20" shape="499.45,1997.45 505.65,1997.45"/>
    </edge>
    <edge id=":14_3" function="internal">
        <lane id=":14_3_0" index="0" speed="13.90" length="5.00" shape="499.45,1997.45 500.81,1997.64 501.77,1998.23 502.36,1999.19 502.55,2000.55"/>
    </edge>
    <edge id=":15_0" function="internal">
        <lane id=":15_0_0" index="0" speed="13.90" length="5.00" shape="502.55,2494.35 502.74,2495.71 503.33,2496.68 504.29,2497.26 505.65,2497.45"/>
    </edge>
    <edge id=":15_1" function="internal">
        <lane id=":15_1_0" index="0" speed="13.90" length="6.20" shape="502.55,2494.35 502.55,2500.55"/>
    </edge>
    <edge id=":15_2" function="internal">
        <lane id=":15_2_0" index="0" speed="13.90" length="6.20" shape="499.45,2497.45 505.65,2497.45"/>
    </edge>
    <edge id=":15_3" function="internal">
        <lane id=":15_3_0" index="0" speed="13.90" length="5.00" shape="499.45,2497.45 500.81,2497.64 501.77,2498.22 502.36,2499.19 502.55,2500.55"/>
    </edge>
    <edge id=":16_0" function="internal">
        <lane id=":16_0_0" index="0" speed="13.90" length="5.00" shape="502.55,2994.35 502.74,2995.71 503.33,2996.68 504.29,2997.26 505.65,2997.45"/>
    </edge>
    <edge id=":16_1" function="internal">
        <lane id=":16_1_0" index="0" speed="13.90" length="6.20" shape="502.55,2994.35 502.55,3000.55"/>
    </edge>
    <edge id=":16_2" function="internal">
        <lane id=":16_2_0" index="0" speed="13.90" length="6.20" shape="499.45,2997.45 505.65,2997.45"/>
    </edge>
    <edge id=":16_3" function="internal">
        <lane id=":16_3_0" index="0" speed="13.90" length="5.00" shape="499.45,2997.45 500.81,2997.64 501.77,2998.22 502.36,2999.19 502.55,3000.55"/>
    </edge>
    <edge id=":17_0" function="internal">
        <lane id=":17_0_0" index="0" speed="13.90" length="5.00" shape="502.55,3494.35 502.74,3495.71 503.33,3496.68 504.29,3497.26 505.65,3497.45"/>
    </edge>
    <edge id=":17_1" function="internal">
        <lane id=":17_1_0" index="0" speed="13.90" length="6.20" shape="502.55,3494.35 502.55,3500.55"/>
    </edge>
    <edge id=":17_2" function="internal">
        <lane id=":17_2_0" index="0" speed="13.90" length="6.20" shape="499.45,3497.45 505.65,3497.45"/>
    </edge>
    <edge id=":17_3" function="internal">
        <lane id=":17_3_0" index="0" speed="13.90" length="5.00" shape="499.45,3497.45 500.81,3497.64 501.77,3498.22 502.36,3499.19 502.55,3500.55"/>
    </edge>
    <edge id=":18_0" function="internal">
        <lane id=":18_0_0" index="0" speed="13.90" length="5.00" shape="502.55,3994.35 502.74,3995.71 503.33,3996.68 504.29,3997.26 505.65,3997.45"/>
    </edge>
    <edge id=":18_1" function="internal">
        <lane id=":18_1_0" index="0" speed="13.90" length="6.20" shape="502.55,3994.35 502.55,4000.55"/>
    </edge>
    <edge id=":18_2" function="internal">
        <lane id=":18_2_0" index="0" speed="13.90" length="6.20" shape="499.45,3997.45 505.65,3997.45"/>
    </edge>
    <edge id=":18_3" function="internal">
        <lane id=":18_3_0" index="0" speed="13.90" length="5.00" shape="499.45,3997.45 500.81,3997.64 501.77,3998.22 502.36,3999.19 502.55,4000.55"/>
    </edge>
    <edge id=":19_0" function="internal">
        <lane id=":19_0_0" index="0" speed="13.90" length="5.00" shape="502.55,4494.35 502.74,4495.71 503.33,4496.68 504.29,4497.26 505.65,4497.45"/>
    </edge>
    <edge id=":19_1" function="internal">
        <lane id=":19_1_0" index="0" speed="13.90" length="7.15" shape="498.50,4497.45 505.65,4497.45"/>
    </edge>
    <edge id=":2_0" function="internal">
        <lane id=":2_0_0" index="0" speed="13.90" length="5.00" shape="2.55,994.35 2.74,995.71 3.33,996.67 4.29,997.26 5.65,997.45"/>
    </edge>
    <edge id=":2_1" function="internal">
        <lane id=":2_1_0" index="0" speed="13.90" length="7.15" shape="2.55,994.35 2.55,1001.50"/>
    </edge>
    <edge id=":20_0" function="internal">
        <lane id=":20_0_0" index="0" speed="13.90" length="7.15" shape="998.50,-2.55 1005.65,-2.55"/>
    </edge>
    <edge id=":20_1" function="internal">
        <lane id=":20_1_0" index="0" speed="13.90" length="5.79" shape="998.50,-2.55 1000.27,-2.36 1001.54,-1.78 1002.30,-0.81 1002.55,0.55"/>
    </edge>
    <edge id=":21_0" function="internal">
        <lane id=":21_0_0" index="0" speed="13.90" length="5.00" shape="1002.55,494.35 1002.74,495.71 1003.32,496.68 1004.29,497.26 1005.65,497.45"/>
    </edge>
    <edge id=":21_1" function="internal">
        <lane id=":21_1_0" index="0" speed="13.90" length="6.20" shape="1002.55,494.35 1002.55,500.55"/>
    </edge>
    <edge id=":21_2" function="internal">
        <lane id=":21_2_0" index="0" speed="13.90" length="6.20" shape="999.45,497.45 1005.65,497.45"/>
    </edge>
    <edge id=":21_3" function="internal">
        <lane id=":21_3_0" index="0" speed="13.90" length="5.00" shape="999.45,497.45 1000.81,497.64 1001.77,498.22 1002.36,499.19 1002.55,500.55"/>
    </edge>
    <edge id=":22_0" function="internal">
        <lane id=":22_0_0" index="0" speed="13.90" length="5.00" shape="1002.55,994.35 1002.74,995.71 1003.32,996.67 1004.29,997.26 1005.65,997.45"/>
    </edge>
    <edge id=":22_1" function="internal">
        <lane id=":22_1_0" index="0" speed="13.90" length="6.20" shape="1002.55,994.35 1002.55,1000.55"/>
    </edge>
    <edge id=":22_2" function="internal">
        <lane id=":22_2_0" index="0" speed="13.90" length="6.20" shape="999.45,997.45 1005.65,997.45"/>
    </edge>
    <edge id=":22_3" function="internal">
        <lane id=":22_3_0" index="0" speed="13.90" length="5.00" shape="999.45,997.45 1000.81,997.64 1001.77,998.23 1002.36,999.19 1002.55,1000.55"/>
    </edge>
    <edge id=":23_0" function="internal">
        <lane id=":23_0_0" index="0" speed="13.90" length="5.00" shape="1002.55,1494.35 1002.74,1495.71 1003.32,1496.67 1004.29,1497.26 1005.65,1497.45"/>
    </edge>
    <edge id=":23_1" function="internal">
        <lane id=":23_1_0" index="0" speed="13.90" length="6.20" shape="1002.55,1494.35 1002.55,1500.55"/>
    </edge>
    <edge id=":23_2" function="internal">
        <lane id=":23_2_0" index="0" speed="13.90" length="6.20" shape="999.45,1497.45 1005.65,1497.45"/>
    </edge>
    <edge id=":23_3" function="internal">
        <lane id=":23_3_0" index="0" speed="13.90" length="5.00" shape="999.45,1497.45 1000.81,1497.64 1001.77,1498.23 1002.36,1499.19 1002.55,1500.55"/>
    </edge>
    <edge id=":24_0" function="internal">
        <lane id=":24_0_0" index="0" speed="13.90" length="5.00" shape="1002.55,1994.35 1002.74,1995.71 1003.32,1996.67 1004.29,1997.26 1005.65,1997.45"/>
    </edge>
    <edge id=":24_1" function="internal">
        <lane id=":24_1_0" index="0" speed="13.90" length="6.20" shape="1002.55,1994.35 1002.55,2000.55"/>
    </edge>
    <edge id=":24_2" function="internal">
        <lane id=":24_2_0" index="0" speed="13.90" length="6.20" shape="999.45,1997.45 1005.65,1997.45"/>
    </edge>
    <edge id=":24_3" function="internal">
        <lane id=":24_3_0" index="0" speed="13.90" length="5.00" shape="999.45,1997.45 1000.81,1997.64 1001.77,1998.23 1002.36,1999.19 1002.55,2000.55"/>
    </edge>
    <edge id=":25_0" function="internal">
        <lane id=":25_0_0" index="0" speed="13.90" length="5.00" shape="1002.55,2494.35 1002.74,2495.71 1003.32,2496.68 1004.29,2497.26 1005.65,2497.45"/>
    </edge>
    <edge id=":25_1" function="internal">
        <lane id=":25_1_0" index="0" speed="13.90" length="6.20" shape="1002.55,2494.35 1002.55,2500.55"/>
    </edge>
    <edge id=":25_2" function="internal">
        <lane id=":25_2_0" index="0" speed="13.90" length="6.20" shape="999.45,2497.45 1005.65,2497.45"/>
    </edge>
    <edge id=":25_3" function="internal">
        <lane id=":25_3_0" index="0" speed="13.90" length="5.00" shape="999.45,2497.45 1000.81,2497.64 1001.77,2498.22 1002.36,2499.19 1002.55,2500.55"/>
    </edge>
    <edge id=":26_0" function="internal">
        <lane id=":26_0_0" index="0" speed="13.90" length="5.00" shape="1002.55,2994.35 1002.74,2995.71 1003.32,2996.68 1004.29,2997.26 1005.65,2997.45"/>
    </edge>
    <edge id=":26_1" function="internal">
        <lane id=":26_1_0" index="0" speed="13.90" length="6.20" shape="1002.55,2994.35 1002.55,3000.55"/>
    </edge>
    <edge id=":26_2" function="internal">
        <lane id=":26_2_0" index="0" speed="13.90" length="6.20" shape="999.45,2997.45 1005.65,2997.45"/>
    </edge>
    <edge id=":26_3" function="internal">
        <lane id=":26_3_0" index="0" speed="13.90" length="5.00" shape="999.45,2997.45 1000.81,2997.64 1001.77,2998.22 1002.36,2999.19 1002.55,3000.55"/>
    </edge>
    <edge id=":27_0" function="internal">
        <lane id=":27_0_0" index="0" speed="13.90" length="5.00" shape="1002.55,3494.35 1002.74,3495.71 1003.32,3496.68 1004.29,3497.26 1005.65,3497.45"/>
    </edge>
    <edge id=":27_1" function="internal">
        <lane id=":27_1_0" index="0" speed="13.90" length="6.20" shape="1002.55,3494.35 1002.55,3500.55"/>
    </edge>
    <edge id=":27_2" function="internal">
        <lane id=":27_2_0" index="0" speed="13.90" length="6.20" shape="999.45,3497.45 1005.65,3497.45"/>
    </edge>
    <edge id=":27_3" function="internal">
        <lane id=":27_3_0" index="0" speed="13.90" length="5.00" shape="999.45,3497.45 1000.81,3497.64 1001.77,3498.22 1002.36,3499.19 1002.55,3500.55"/>
    </edge>
    <edge id=":28_0" function="internal">
        <lane id=":28_0_0" index="0" speed="13.90" length="5.00" shape="1002.55,3994.35 1002.74,3995.71 1003.32,3996.68 1004.29,3997.26 1005.65,3997.45"/>
    </edge>
    <edge id=":28_1" function="internal">
        <lane id=":28_1_0" index="0" speed="13.90" length="6.20" shape="1002.55,3994.35 1002.55,4000.55"/>
    </edge>
    <edge id=":28_2" function="internal">
        <lane id=":28_2_0" index="0" speed="13.90" length="6.20" shape="999.45,3997.45 1005.65,3997.45"/>
    </edge>
    <edge id=":28_3" function="internal">
        <lane id=":28_3_0" index="0" speed="13.90" length="5.00" shape="999.45,3997.45 1000.81,3997.64 1001.77,3998.22 1002.36,3999.19 1002.55,4000.55"/>
    </edge>
    <edge id=":29_0" function="internal">
        <lane id=":29_0_0" index="0" speed="13.90" length="5.00" shape="1002.55,4494.35 1002.74,4495.71 1003.32,4496.68 1004.29,4497.26 1005.65,4497.45"/>
    </edge>
    <edge id=":29_1" function="internal">
        <lane id=":29_1_0" index="0" speed="13.90" length="7.15" shape="998.50,4497.45 1005.65,4497.45"/>
    </edge>
    <edge id=":3_0" function="internal">
        <lane id=":3_0_0" index="0" speed="13.90" length="5.00" shape="2.55,1494.35 2.74,1495.71 3.33,1496.67 4.29,1497.26 5.65,1497.45"/>
    </edge>
    <edge id=":3_1" function="internal">
        <lane id=":3_1_0" index="0" speed="13.90" length="7.15" shape="2.55,1494.35 2.55,1501.50"/>
    </edge>
    <edge id=":30_0" function="internal">
        <lane id=":30_0_0" index="0" speed="13.90" length="7.15" shape="1498.50,-2.55 1505.65,-2.55"/>
    </edge>
    <edge id=":30_1" function="internal">
        <lane id=":30_1_0" index="0" speed="13.90" length="5.79" shape="1498.50,-2.55 1500.27,-2.36 1501.54,-1.78 1502.30,-0.81 1502.55,0.55"/>
    </edge>
    <edge id=":31_0" function="internal">
        <lane id=":31_0_0" index="0" speed="13.90" length="5.00" shape="1502.55,494.35 1502.74,495.71 1503.32,496.68 1504.29,497.26 1505.65,497.45"/>
    </edge>
    <edge id=":31_1" function="internal">
        <lane id=":31_1_0" index="0" speed="13.90" length="6.20" shape="1502.55,494.35 1502.55,500.55"/>
    </edge>
    <edge id=":31_2" function="internal">
        <lane id=":31_2_0" index="0" speed="13.90" length="6.20" shape="1499.45,497.45 1505.65,497.45"/>
    </edge>
    <edge id=":31_3" function="internal">
        <lane id=":31_3_0" index="0" speed="13.90" length="5.00" shape="1499.45,497.45 1500.81,497.64 1501.78,498.22 1502.36,499.19 1502.55,500.55"/>
    </edge>
    <edge id=":32_0" function="internal">
        <lane id=":32_0_0" index="0" speed="13.90" length="5.00" shape="1502.55,994.35 1502.74,995.71 1503.32,996.67 1504.29,997.26 1505.65,997.45"/>
    </edge>
    <edge id=":32_1" function="internal">
        <lane id=":32_1_0" index="0" speed="13.90" length="6.20" shape="1502.55,994.35 1502.55,1000.55"/>
    </edge>
    <edge id=":32_2" function="internal">
        <lane id=":32_2_0" index="0" speed="13.90" length="6.20" shape="1499.45,997.45 1505.65,997.45"/>
    </edge>
    <edge id=":32_3" function="internal">
        <lane id=":32_3_0" index="0" speed="13.90" length="5.00" shape="1499.45,997.45 1500.81,997.64 1501.78,998.23 1502.36,999.19 1502.55,1000.55"/>
    </edge>
    <edge id=":33_0" function="internal">
        <lane id=":33_0_0" index="0" speed="13.90" length="5.00" shape="1502.55,1494.35 1502.74,1495.71 1503.32,1496.67 1504.29,1497.26 1505.65,1497.45"/>
    </edge>
    <edge id=":33_1" function="internal">
        <lane id=":33_1_0" index="0" speed="13.90" length="6.20" shape="1502.55,1494.35 1502.55,1500.55"/>
    </edge>
    <edge id=":33_2" function="internal">
        <lane id=":33_2_0" index="0" speed="13.90" length="6.20" shape="1499.45,1497.45 1505.65,1497.45"/>
    </edge>
    <edge id=":33_3" function="internal">
        <lane id=":33_3_0" index="0" speed="13.90" length="5.00" shape="1499.45,1497.45 1500.81,1497.64 1501.78,1498.23 1502.36,1499.19 1502.55,1500.55"/>
    </edge>
    <edge id=":34_0" function="internal">
        <lane id=":34_0_0" index="0" speed="13.90" length="5.00" shape="1502.55,1994.35 1502.74,1995.71 1503.32,1996.67 1504.29,1997.26 1505.65,1997.45"/>
    </edge>
    <edge id=":34_1" function="internal">
        <lane id=":34_1_0" index="0" speed="13.90" length="6.20" shape="1502.55,1994.35 1502.55,2000.55"/>
    </edge>
    <edge id=":34_2" function="internal">
        <lane id=":34_2_0" index="0" speed="13.90" length="6.20" shape="1499.45,1997.45 1505.65,1997.45"/>
    </edge>
    <edge id=":34_3" function="internal">
        <lane id=":34_3_0" index="0" speed="13.90" length="5.00" shape="1499.45,1997.45 1500.81,1997.64 1501.78,1998.23 1502.36,1999.19 1502.55,2000.55"/>
    </edge>
    <edge id=":35_0" function="internal">
        <lane id=":35_0_0" index="0" speed="13.90" length="5.00" shape="1502.55,2494.35 1502.74,2495.71 1503.32,2496.68 1504.29,2497.26 1505.65,2497.45"/>
    </edge>
    <edge id=":35_1" function="internal">
        <lane id=":35_1_0" index="0" speed="13.90" length="6.20" shape="1502.55,2494.35 1502.55,2500.55"/>
    </edge>
    <edge id=":35_2" function="internal">
        <lane id=":35_2_0" index="0" speed="13.90" length="6.20" shape="1499.45,2497.45 1505.65,2497.45"/>
    </edge>
    <edge id=":35_3" function="internal">
        <lane id=":35_3_0" index="0" speed="13.90" length="5.00" shape="1499.45,2497.45 1500.81,2497.64 1501.78,2498.22 1502.36,2499.19 1502.55,2500.55"/>
    </edge>
    <edge id=":36_0" function="internal">
        <lane id=":36_0_0" index="0" speed="13.90" length="5.00" shape="1502.55,2994.35 1502.74,2995.71 1503.32,2996.68 1504.29,2997.26 1505.65,2997.45"/>
    </edge>
    <edge id=":36_1" function="internal">
        <lane id=":36_1_0" index="0" speed="13.90" length="6.20" shape="1502.55,2994.35 1502.55,3000.55"/>
    </edge>
    <edge id=":36_2" function="internal">
        <lane id=":36_2_0" index="0" speed="13.90" length="6.20" shape="1499.45,2997.45 1505.65,2997.45"/>
    </edge>
    <edge id=":36_3" function="internal">
        <lane id=":36_3_0" index="0" speed="13.90" length="5.00" shape="1499.45,2997.45 1500.81,2997.64 1501.78,2998.22 1502.36,2999.19 1502.55,3000.55"/>
    </edge>
    <edge id=":37_0" function="internal">
        <lane id=":37_0_0" index="0" speed="13.90" length="5.00" shape="1502.55,3494.35 1502.74,3495.71 1503.32,3496.68 1504.29,3497.26 1505.65,3497.45"/>
    </edge>
    <edge id=":37_1" function="internal">
        <lane id=":37_1_0" index="0" speed="13.90" length="6.20" shape="1502.55,3494.35 1502.55,3500.55"/>
    </edge>
    <edge id=":37_2" function="internal">
        <lane id=":37_2_0" index="0" speed="13.90" length="6.20" shape="1499.45,3497.45 1505.65,3497.45"/>
    </edge>
    <edge id=":37_3" function="internal">
        <lane id=":37_3_0" index="0" speed="13.90" length="5.00" shape="1499.45,3497.45 1500.81,3497.64 1501.78,3498.22 1502.36,3499.19 1502.55,3500.55"/>
    </edge>
    <edge id=":38_0" function="internal">
        <lane id=":38_0_0" index="0" speed="13.90" length="5.00" shape="1502.55,3994.35 1502.74,3995.71 1503.32,3996.68 1504.29,3997.26 1505.65,3997.45"/>
    </edge>
    <edge id=":38_1" function="internal">
        <lane id=":38_1_0" index="0" speed="13.90" length="6.20" shape="1502.55,3994.35 1502.55,4000.55"/>
    </edge>
    <edge id=":38_2" function="internal">
        <lane id=":38_2_0" index="0" speed="13.90" length="6.20" shape="1499.45,3997.45 1505.65,3997.45"/>
    </edge>
    <edge id=":38_3" function="internal">
        <lane id=":38_3_0" index="0" speed="13.90" length="5.00" shape="1499.45,3997.45 1500.81,3997.64 1501.78,3998.22 1502.36,3999.19 1502.55,4000.55"/>
    </edge>
    <edge id=":39_0" function="internal">
        <lane id=":39_0_0" index="0" speed="13.90" length="5.00" shape="1502.55,4494.35 1502.74,4495.71 1503.32,4496.68 1504.29,4497.26 1505.65,4497.45"/>
    </edge>
    <edge id=":39_1" function="internal">
        <lane id=":39_1_0" index="0" speed="13.90" length="7.15" shape="1498.50,4497.45 1505.65,4497.45"/>
    </edge>
    <edge id=":4_0" function="internal">
        <lane id=":4_0_0" index="0" speed="13.90" length="5.00" shape="2.55,1994.35 2.74,1995.71 3.33,1996.67 4.29,1997.26 5.65,1997.45"/>
    </edge>
    <edge id=":4_1" function="internal">
        <lane id=":4_1_0" index="0" speed="13.90" length="7.15" shape="2.55,1994.35 2.55,2001.50"/>
    </edge>
    <edge id=":40_0" function="internal">
        <lane id=":40_0_0" index="0" speed="13.90" length="7.15" shape="1998.50,-2.55 2005.65,-2.55"/>
    </edge>
    <edge id=":40_1" function="internal">
        <lane id=":40_1_0" index="0" speed="13.90" length="5.79" shape="1998.50,-2.55 2000.27,-2.36 2001.54,-1.78 2002.30,-0.81 2002.55,0.55"/>
    </edge>
    <edge id=":41_0" function="internal">
        <lane id=":41_0_0" index="0" speed="13.90" length="5.00" shape="2002.55,494.35 2002.74,495.71 2003.32,496.67 2004.29,497.26 2005.65,497.45"/>
    </edge>
    <edge id=":41_1" function="internal">
        <lane id=":41_1_0" index="0" speed="13.90" length="6.20" shape="2002.55,494.35 2002.55,500.55"/>
    </edge>
    <edge id=":41_2" function="internal">
        <lane id=":41_2_0" index="0" speed="13.90" length="6.20" shape="1999.45,497.45 2005.65,497.45"/>
    </edge>
    <edge id=":41_3" function="internal">
        <lane id=":41_3_0" index="0" speed="13.90" length="5.00" shape="1999.45,497.45 2000.81,497.64 2001.78,498.22 2002.36,499.19 2002.55,500.55"/>
    </edge>
    <edge id=":42_0" function="internal">
        <lane id=":42_0_0" index="0" speed="13.90" length="5.00" shape="2002.55,994.35 2002.74,995.71 2003.32,996.67 2004.29,997.26 2005.65,997.45"/>
    </edge>
    <edge id=":42_1" function="internal">
        <lane id=":42_1_0" index="0" speed="13.90" length="6.20" shape="2002.55,994.35 2002.55,1000.55"/>
    </edge>
    <edge id=":42_2" function="internal">
        <lane id=":42_2_0" index="0" speed="13.90" length="6.20" shape="1999.45,997.45 2005.65,997.45"/>
    </edge>
    <edge id=":42_3" function="internal">
        <lane id=":42_3_0" index="0" speed="13.90" length="5.00" shape="1999.45,997.45 2000.81,997.64 2001.78,998.23 2002.36,999.19 2002.55,1000.55"/>
    </edge>
    <edge id=":43_0" function="internal">
        <lane id=":43_0_0" index="0" speed="13.90" length="5.00" shape="2002.55,1494.35 2002.74,1495.71 2003.32,1496.67 2004.29,1497.26 2005.65,1497.45"/>
    </edge>
    <edge id=":43_1" function="internal">
        <lane id=":43_1_0" index="0" speed="13.90" length="6.20" shape="2002.55,1494.35 2002.55,1500.55"/>
    </edge>
    <edge id=":43_2" function="internal">
        <lane id=":43_2_0" index="0" speed="13.90" length="6.20" shape="1999.45,1497.45 2005.65,1497.45"/>
    </edge>
    <edge id=":43_3" function="internal">
        <lane id=":43_3_0" index="0" speed="13.90" length="5.00" shape="1999.45,1497.45 2000.81,1497.64 2001.78,1498.23 2002.36,1499.19 2002.55,1500.55"/>
    </edge>
    <edge id=":44_0" function="internal">
        <lane id=":44_0_0" index="0" speed="13.90" length="5.00" shape="2002.55,1994.35 2002.74,1995.71 2003.32,1996.67 2004.29,1997.26 2005.65,1997.45"/>
    </edge>
    <edge id=":44_1" function="internal">
        <lane id=":44_1_0" index="0" speed="13.90" length="6.20" shape="2002.55,1994.35 2002.55,2000.55"/>
    </edge>
    <edge id=":44_2" function="internal">
        <lane id=":44_2_0" index="0" speed="13.90" length="6.20" shape="1999.45,1997.45 2005.65,1997.45"/>
    </edge>
    <edge id=":44_3" function="internal">
        <lane id=":44_3_0" index="0" speed="13.90" length="5.00" shape="1999.45,1997.45 2000.81,1997.64 2001.78,1998.23 2002.36,1999.19 2002.55,2000.55"/>
    </edge>
    <edge id=":45_0" function="internal">
        <lane id=":45_0_0" index="0" speed="13.90" length="5.00" shape="2002.55,2494.35 2002.74,2495.71 2003.32,2496.68 2004.29,2497.26 2005.65,2497.45"/>
    </edge>
    <edge id=":45_1" function="internal">
        <lane id=":45_1_0" index="0" speed="13.90" length="6.20" shape="2002.55,2494.35 2002.55,2500.55"/>
    </edge>
    <edge id=":45_2" function="internal">
        <lane id=":45_2_0" index="0" speed="13.90" length="6.20" shape="1999.45,2497.45 2005.65,2497.45"/>
    </edge>
    <edge id=":45_3" function="internal">
        <lane id=":45_3_0" index="0" speed="13.90" length="5.00" shape="1999.45,2497.45 2000.81,2497.64 2001.78,2498.22 2002.36,2499.19 2002.55,2500.55"/>
    </edge>
    <edge id=":46_0" function="internal">
        <lane id=":46_0_0" index="0" speed="13.90" length="5.00" shape="2002.55,2994.35 2002.74,2995.71 2003.32,2996.68 2004.29,2997.26 2005.65,2997.45"/>
    </edge>
    <edge id=":46_1" function="internal">
        <lane id=":46_1_0" index="0" speed="13.90" length="6.20" shape="2002.55,2994.35 2002.55,3000.55"/>
    </edge>
    <edge id=":46_2" function="internal">
        <lane id=":46_2_0" index="0" speed="13.90" length="6.20" shape="1999.45,2997.45 2005.65,2997.45"/>
    </edge>
    <edge id=":46_3" function="internal">
        <lane id=":46_3_0" index="0" speed="13.90" length="5.00" shape="1999.45,2997.45 2000.81,2997.64 2001.78,2998.22 2002.36,2999.19 2002.55,3000.55"/>
    </edge>
    <edge id=":47_0" function="internal">
        <lane id=":47_0_0" index="0" speed="13.90" length="5.00" shape="2002.55,3494.35 2002.74,3495.71 2003.32,3496.68 2004.29,3497.26 2005.65,3497.45"/>
    </edge>
    <edge id=":47_1" function="internal">
        <lane id=":47_1_0" index="0" speed="13.90" length="6.20" shape="2002.55,3494.35 2002.55,3500.55"/>
    </edge>
    <edge id=":47_2" function="internal">
        <lane id=":47_2_0" index="0" speed="13.90" length="6.20" shape="1999.45,3497.45 2005.65,3497.45"/>
    </edge>
    <edge id=":47_3" function="internal">
        <lane id=":47_3_0" index="0" speed="13.90" length="5.00" shape="1999.45,3497.45 2000.81,3497.64 2001.78,3498.22 2002.36,3499.19 2002.55,3500.55"/>
    </edge>
    <edge id=":48_0" function="internal">
        <lane id=":48_0_0" index="0" speed="13.90" length="5.00" shape="2002.55,3994.35 2002.74,3995.71 2003.32,3996.68 2004.29,3997.26 2005.65,3997.45"/>
    </edge>
    <edge id=":48_1" function="internal">
        <lane id=":48_1_0" index="0" speed="13.90" length="6.20" shape="2002.55,3994.35 2002.55,4000.55"/>
    </edge>
    <edge id=":48_2" function="internal">
        <lane id=":48_2_0" index="0" speed="13.90" length="6.20" shape="1999.45,3997.45 2005.65,3997.45"/>
    </edge>
    <edge id=":48_3" function="internal">
        <lane id=":48_3_0" index="0" speed="13.90" length="5.00" shape="1999.45,3997.45 2000.81,3997.64 2001.78,3998.22 2002.36,3999.19 2002.55,4000.55"/>
    </edge>
    <edge id=":49_0" function="internal">
        <lane id=":49_0_0" index="0" speed="13.90" length="5.00" shape="2002.55,4494.35 2002.74,4495.71 2003.32,4496.68 2004.29,4497.26 2005.65,4497.45"/>
    </edge>
    <edge id=":49_1" function="internal">
        <lane id=":49_1_0" index="0" speed="13.90" length="7.15" shape="1998.50,4497.45 2005.65,4497.45"/>
    </edge>
    <edge id=":5_0" function="internal">
        <lane id=":5_0_0" index="0" speed="13.90" length="5.00" shape="2.55,2494.35 2.74,2495.71 3.33,2496.68 4.29,2497.26 5.65,2497.45"/>
    </edge>
    <edge id=":5_1" function="internal">
        <lane id=":5_1_0" index="0" speed="13.90" length="7.15" shape="2.55,2494.35 2.55,2501.50"/>
    </edge>
    <edge id=":50_0" function="internal">
        <lane id=":50_0_0" index="0" speed="13.90" length="7.15" shape="2498.50,-2.55 2505.65,-2.55"/>
    </edge>
    <edge id=":50_1" function="internal">
        <lane id=":50_1_0" index="0" speed="13.90" length="5.79" shape="2498.50,-2.55 2500.27,-2.36 2501.54,-1.78 2502.30,-0.81 2502.55,0.55"/>
    </edge>
    <edge id=":51_0" function="internal">
        <lane id=":51_0_0" index="0" speed="13.90" length="5.00" shape="2502.55,494.35 2502.74,495.71 2503.33,496.68 2504.29,497.26 2505.65,497.45"/>
    </edge>
    <edge id=":51_1" function="internal">
        <lane id=":51_1_0" index="0" speed="13.90" length="6.20" shape="2502.55,494.35 2502.55,500.55"/>
    </edge>
    <edge id=":51_2" function="internal">
        <lane id=":51_2_0" index="0" speed="13.90" length="6.20" shape="2499.45,497.45 2505.65,497.45"/>
    </edge>
    <edge id=":51_3" function="internal">
        <lane id=":51_3_0" index="0" speed="13.90" length="5.00" shape="2499.45,497.45 2500.81,497.64 2501.78,498.22 2502.36,499.19 2502.55,500.55"/>
    </edge>
    <edge id=":52_0" function="internal">