<?xml version="1.0" encoding="UTF-8"?>

<!-- generated on Sun Jan 31 12:14:27 2016 by SUMO duarouter Version 0.19.0
<?xml version="1.0" encoding="UTF-8"?>

<configuration xmlns:xsi="http://www.w3.org/2001/XMLSchema-instance" xsi:noNamespaceSchemaLocation="http://sumo-sim.org/xsd/duarouterConfiguration.xsd">

    <input>
        <net-file value="city.net.xml"/>
        <trip-files value="trips.trips.xml"/>
    </input>

    <output>
        <output-file value="city.rou.xml"/>
    </output>

    <processing>
        <ignore-errors value="true"/>
    </processing>

    <time>
        <begin value="0"/>
        <end value="3600"/>
    </time>

</configuration>
-->

<routes xmlns:xsi="http://www.w3.org/2001/XMLSchema-instance" xsi:noNamespaceSchemaLocation="http://sumo-sim.org/xsd/routes_file.xsd">
    <vehicle id="11" depart="11.00">
        <route edges="26to36 36to46 46to56 56to66 66to76 76to86 86to96"/>
    </vehicle>
    <vehicle id="29" depart="29.00">
        <route edges="67to77 77to78 78to79 79to89"/>
    </vehicle>
    <vehicle id="35" depart="35.00">
        <route edges="30to31 31to32 32to33 33to43 43to44"/>
    </vehicle>
    <vehicle id="39" depart="39.00">
        <route edges="36to46 46to56 56to66"/>
    </vehicle>
    <vehicle id="40" depart="40.00">
        <route edges="67to68 68to69 69to79"/>
    </vehicle>
    <vehicle id="42" depart="42.00">
        <route edges="33to43 43to44 44to54 54to64"/>
    </vehicle>
    <vehicle id="44" depart="44.00">
        <route edges="72to82 82to83 83to84 84to85 85to95"/>
    </vehicle>
    <vehicle id="47" depart="47.00">
        <route edges="3to4 4to5 5to6 6to7 7to17 17to27 27to37 37to47 47to57 57to67 67to77 77to87 87to88"/>
    </vehicle>
    <vehicle id="50" depart="50.00">
        <route edges="30to40 40to50 50to60 60to70 70to80 80to81 81to91 91to92 92to93 93to94 94to95"/>
    </vehicle>
    <vehicle id="53" depart="53.00">
        <route edges="24to34 34to35 35to45 45to55 55to65 65to75 75to85"/>
    </vehicle>
    <vehicle id="55" depart="55.00">
        <route edges="1to2 2to3 3to4 4to5 5to6 6to7 7to17 17to27 27to37 37to47 47to48"/>
    </vehicle>
    <vehicle id="58" depart="58.00">
        <route edges="20to21 21to31 31to41 41to51 51to61 61to71 71to81 81to91"/>
    </vehicle>
    <vehicle id="66" depart="66.00">
        <route edges="2to12 12to13 13to14 14to24 24to34 34to44 44to54"/>
    </vehicle>
    <vehicle id="74" depart="74.00">
        <route edges="31to32 32to42 42to43"/>
    </vehicle>
    <vehicle id="78" depart="78.00">
        <route edges="40to50 50to51 51to52 52to53 53to54 54to55 55to56 56to66"/>
    </vehicle>
    <vehicle id="81" depart="81.00">
        <route edges="30to31 31to32 32to33 33to34 34to35 35to36 36to46 46to56 56to66 66to76"/>
    </vehicle>
    <vehicle id="84" depart="84.00">
        <route edges="64to74 74to75 75to76 76to77 77to78 78to79 79to89 89to99"/>
    </vehicle>
    <vehicle id="92" depart="92.00">
        <route edges="10to20 20to21 21to22 22to32"/>
    </vehicle>
    <vehicle id="97" depart="97.00">
        <route edges="15to16 16to17 17to18 18to28 28to38 38to48 48to58 58to68"/>
    </vehicle>
    <vehicle id="99" depart="99.00">
        <route edges="2to12 12to13 13to14 14to15 15to16 16to17 17to18 18to19 19to29"/>
    </vehicle>
    <vehicle id="100" depart="100.00">
        <route edges="24to25 25to26 26to27 27to37 37to47 47to57 57to67 67to77 77to87 87to97"/>
    </vehicle>
    <vehicle id="101" depart="101.00">
        <route edges="2to3 3to13 13to23 23to33 33to34"/>
    </vehicle>
    <vehicle id="103" depart="103.00">
        <route edges="0to10 10to20 20to30 30to40 40to50 50to60 60to70 70to71 71to72 72to73 73to83"/>
    </vehicle>
    <vehicle id="112" depart="112.00">
        <route edges="23to24 24to25 25to26 26to27 27to37 37to47 47to57 57to67 67to77"/>
    </vehicle>
    <vehicle id="114" depart="114.00">
        <route edges="23to33 33to34 34to35 35to36 36to37 37to47 47to48"/>
    </vehicle>
    <vehicle id="115" depart="115.00">
        <route edges="35to36 36to37 37to38 38to39 39to49 49to59 59to69 69to79"/>
    </vehicle>
    <vehicle id="120" depart="120.00">
        <route edges="31to41 41to42 42to43 43to44 44to45 45to46 46to47 47to48 48to49"/>
    </vehicle>
    <vehicle id="125" depart="125.00">
        <route edges="2to3 3to4 4to5 5to15 15to25 25to35 35to45 45to55 55to65 65to75 75to85 85to95"/>
    </vehicle>
    <vehicle id="126" depart="126.00">
        <route edges="72to73 73to83 83to93 93to94 94to95 95to96"/>
    </vehicle>
    <vehicle id="127" depart="127.00">
        <route edges="4to5 5to6 6to16 16to26 26to36 36to46 46to56 56to66 66to76 76to86"/>
    </vehicle>
    <vehicle id="136" depart="136.00">
        <route edges="5to15 15to16 16to17 17to18 18to28 28to38 38to48 48to58 58to68 68to78 78to88 88to89"/>
    </vehicle>
    <vehicle id="140" depart="140.00">
        <route edges="54to64 64to65 65to66 66to67 67to77"/>
    </vehicle>
    <vehicle id="145" depart="145.00">
        <route edges="69to79 79to89"/>
    </vehicle>
    <vehicle id="164" depart="164.00">
        <route edges="24to34 34to35 35to36 36to46 46to56 56to66"/>
    </vehicle>
    <vehicle id="165" depart="165.00">
        <route edges="6to7 7to17 17to27 27to37 37to47 47to57 57to67 67to77 77to87"/>
    </vehicle>
    <vehicle id="168" depart="168.00">
        <route edges="15to16"/>
    </vehicle>
    <vehicle id="172" depart="172.00">
        <route edges="0to1 1to2 2to3 3to13 13to23 23to33 33to43 43to53 53to63 63to73 73to83"/>
    </vehicle>
    <vehicle id="178" depart="178.00">
        <route edges="10to11 11to12 12to13 13to14"/>
    </vehicle>
    <vehicle id="179" depart="179.00">
        <route edges="0to1 1to2 2to3 3to4 4to14 14to24"/>
    </vehicle>
    <vehicle id="180" depart="180.00">
        <route edges="25to35"/>
    </vehicle>
    <vehicle id="184" depart="184.00">
        <route edges="66to76 76to77"/>
    </vehicle>
    <vehicle id="186" depart="186.00">
        <route edges="10to11 11to12 12to13 13to23 23to33 33to34"/>
    </vehicle>
    <vehicle id="190" depart="190.00">
        <route edges="21to22 22to23 23to24 24to25 25to35 35to45 45to55 55to65"/>
    </vehicle>
    <vehicle id="192" depart="192.00">
        <route edges="0to1 1to2 2to3 3to4 4to14 14to24 24to25"/>
    </vehicle>
    <vehicle id="193" depart="193.00">
        <route edges="10to20 20to30 30to40 40to50 50to60 60to70 70to71 71to72 72to73 73to74"/>
    </vehicle>
    <vehicle id="196" depart="196.00">
        <route edges="15to16 16to26 26to36 36to37"/>
    </vehicle>
    <vehicle id="198" depart="198.00">
        <route edges="67to68 68to78 78to88 88to98"/>
    </vehicle>
    <vehicle id="204" depart="204.00">
        <route edges="0to1 1to2 2to3 3to4 4to5 5to6 6to7 7to8"/>
    </vehicle>
    <vehicle id="207" depart="207.00">
        <route edges="3to4 4to5 5to15"/>
    </vehicle>
    <vehicle id="211" depart="211.00">
        <route edges="64to74 74to84 84to85"/>
    </vehicle>
    <vehicle id="215" depart="215.00">
        <route edges="95to96 96to97 97to98 98to99"/>
    </vehicle>
    <vehicle id="216" depart="216.00">
        <route edges="65to75 75to76 76to77"/>
    </vehicle>
    <vehicle id="220" depart="220.00">
        <route edges="41to51 51to52 52to53 53to54 54to55 55to56 56to57 57to58 58to59 59to69 69to79"/>
    </vehicle>
    <vehicle id="223" depart="223.00">
        <route edges="2to3 3to4 4to5 5to6 6to7 7to17 17to27 27to37 37to47 47to57 57to67 67to68"/>
    </vehicle>
    <vehicle id="224" depart="224.00">
        <route edges="31to32 32to33 33to34 34to44 44to54 54to64 64to74 74to84 84to85"/>
    </vehicle>
    <vehicle id="228" depart="228.00">
        <route edges="45to46 46to56 56to66"/>
    </vehicle>
    <vehicle id="229" depart="229.00">
        <route edges="81to82 82to83 83to84 84to85 85to86 86to87 87to88"/>
    </vehicle>
    <vehicle id="232" depart="232.00">
        <route edges="40to50 50to60 60to70 70to71 71to72 72to73 73to83"/>
    </vehicle>
    <vehicle id="239" depart="239.00">
        <route edges="20to30 30to40 40to50 50to51 51to52 52to53 53to54 54to64"/>
    </vehicle>
    <vehicle id="242" depart="242.00">
        <route edges="13to14 14to24 24to34 34to44 44to54 54to64 64to74 74to75"/>
    </vehicle>
    <vehicle id="244" depart="244.00">
        <route edges="44to54 54to64 64to74 74to84 84to94"/>
    </vehicle>
    <vehicle id="248" depart="248.00">
        <route edges="31to41 41to42 42to43 43to53 53to63 63to73 73to83 83to93"/>
    </vehicle>
    <vehicle id="255" depart="255.00">
        <route edges="62to63 63to64 64to65 65to66"/>
    </vehicle>
    <vehicle id="259" depart="259.00">
        <route edges="27to28 28to29 29to39 39to49 49to59 59to69 69to79 79to89 89to99"/>
    </vehicle>
    <vehicle id="266" depart="266.00">
        <route edges="82to83 83to93 93to94"/>
    </vehicle>
    <vehicle id="269" depart="269.00">
        <route edges="20to30 30to40 40to50 50to60 60to70 70to80 80to81 81to82 82to83 83to84 84to85 85to86 86to87 87to97"/>
    </vehicle>
    <vehicle id="270" depart="270.00">
        <route edges="74to75 75to85"/>
    </vehicle>
    <vehicle id="271" depart="271.00">
        <route edges="73to83 83to84 84to85 85to86 86to87 87to88 88to89"/>
    </vehicle>
    <vehicle id="278" depart="278.00">
        <route edges="57to58 58to68 68to78"/>
    </vehicle>
    <vehicle id="282" depart="282.00">
        <route edges="43to53 53to54 54to55 55to56 56to66 66to76 76to86 86to96"/>
    </vehicle>
    <vehicle id="285" depart="285.00">
        <route edges="24to34 34to35 35to36 36to37 37to47 47to57 57to67 67to77"/>
    </vehicle>
    <vehicle id="290" depart="290.00">
        <route edges="31to32 32to33 33to34 34to35 35to45 45to55 55to56"/>
    </vehicle>
    <vehicle id="291" depart="291.00">
        <route edges="0to1 1to2 2to3 3to4 4to14 14to24 24to34 34to44 44to54 54to55"/>
    </vehicle>
    <vehicle id="292" depart="292.00">
        <route edges="14to24 24to25 25to26 26to27 27to28 28to29 29to39 39to49 49to59 59to69"/>
    </vehicle>
    <vehicle id="299" depart="299.00">
        <route edges="26to27 27to28 28to29 29to39 39to49 49to59 59to69 69to79 79to89"/>
    </vehicle>
    <vehicle id="300" depart="300.00">
        <route edges="70to71 71to81 81to91 91to92"/>
    </vehicle>
    <vehicle id="303" depart="303.00">
        <route edges="35to45 45to46 46to47 47to48 48to49 49to59"/>
    </vehicle>
    <vehicle id="307" depart="307.00">
        <route edges="0to1 1to2 2to3 3to4 4to5 5to6 6to7 7to8 8to18 18to28 28to38 38to48 48to58 58to68 68to78 78to88"/>
    </vehicle>
    <vehicle id="310" depart="310.00">
        <route edges="14to15 15to16 16to26 26to36 36to46 46to56 56to66 66to76 76to86 86to87"/>
    </vehicle>
    <vehicle id="320" depart="320.00">
        <route edges="64to74 74to75 75to76 76to77 77to87"/>
    </vehicle>
    <vehicle id="321" depart="321.00">
        <route edges="21to22 22to23 23to24 24to25 25to26 26to27 27to28 28to29"/>
    </vehicle>
    <vehicle id="331" depart="331.00">
        <route edges="41to42 42to43 43to53 53to63 63to73 73to74"/>
    </vehicle>
    <vehicle id="335" depart="335.00">
        <route edges="38to48 48to58 58to68 68to69"/>
    </vehicle>
    <vehicle id="339" depart="339.00">
        <route edges="1to2 2to3 3to13 13to23 23to33 33to43 43to53 53to63 63to73 73to83 83to93 93to94 94to95"/>
    </vehicle>
    <vehicle id="343" depart="343.00">
        <route edges="60to70 70to80 80to81 81to82 82to83 83to93"/>
    </vehicle>
    <vehicle id="345" depart="345.00">
        <route edges="10to20 20to30 30to40 40to50 50to60 60to70 70to71"/>
    </vehicle>
    <vehicle id="346" depart="346.00">
        <route edges="0to1 1to2 2to3 3to4 4to5 5to6 6to16 16to26 26to36 36to46"/>
    </vehicle>
    <vehicle id="361" depart="361.00">
        <route edges="31to41"/>
    </vehicle>
    <vehicle id="365" depart="365.00">
        <route edges="58to68 68to78 78to88 88to89"/>
    </vehicle>
    <vehicle id="371" depart="371.00">
        <route edges="72to73 73to83"/>
    </vehicle>
    <vehicle id="374" depart="374.00">
        <route edges="1to2 2to12 12to22 22to32 32to33"/>
    </vehicle>
    <vehicle id="376" depart="376.00">
        <route edges="50to51 51to52 52to53 53to54 54to55 55to56 56to66"/>
    </vehicle>
    <vehicle id="377" depart="377.00">
        <route edges="80to81 81to91 91to92"/>
    </vehicle>
    <vehicle id="378" depart="378.00">
        <route edges="10to11 11to12 12to13 13to14 14to15 15to25 25to35 35to45 45to55 55to65 65to75 75to76"/>
    </vehicle>
    <vehicle id="384" depart="384.00">
        <route edges="15to25 25to26 26to27 27to28 28to38 38to48 48to58 58to68 68to78 78to88 88to98"/>
    </vehicle>
    <vehicle id="385" depart="385.00">
        <route edges="2to12 12to13 13to14 14to15 15to16 16to17 17to18 18to19 19to29 29to39 39to49 49to59 59to69 69to79 79to89 89to99"/>
    </vehicle>
    <vehicle id="391" depart="391.00">
        <route edges="10to20 20to30 30to40 40to41 41to42 42to43 43to53"/>
    </vehicle>
    <vehicle id="395" depart="395.00">
        <route edges="50to60 60to61"/>
    </vehicle>
    <vehicle id="398" depart="398.00">
        <route edges="4to5 5to6 6to7 7to8 8to18 18to19 19to29 29to39"/>
    </vehicle>
    <vehicle id="401" depart="401.00">
        <route edges="18to28 28to38 38to48 48to58 58to68 68to78 78to88 88to89"/>
    </vehicle>
    <vehicle id="402" depart="402.00">
        <route edges="21to22 22to23 23to24 24to34 34to44"/>
    </vehicle>
    <vehicle id="408" depart="408.00">
        <route edges="62to72 72to73 73to74 74to75 75to76 76to77 77to78 78to88"/>
    </vehicle>
    <vehicle id="412" depart="412.00">
        <route edges="32to33 33to34 34to44 44to45"/>
    </vehicle>
    <vehicle id="414" depart="414.00">
        <route edges="13to14 14to24 24to25"/>
    </vehicle>
    <vehicle id="417" depart="417.00">
        <route edges="4to14 14to15 15to16 16to17 17to18 18to19 19to29 29to39 39to49 49to59 59to69 69to79"/>
    </vehicle>
    <vehicle id="418" depart="418.00">
        <route edges="31to32 32to33 33to34 34to35 35to36 36to37"/>
    </vehicle>
    <vehicle id="419" depart="419.00">
        <route edges="12to22 22to23 23to24 24to25 25to26 26to27 27to37 37to47 47to57 57to67 67to68"/>
    </vehicle>
    <vehicle id="427" depart="427.00">
        <route edges="2to3 3to4 4to14 14to24 24to34 34to44 44to54 54to64 64to74"/>
    </vehicle>
    <vehicle id="432" depart="432.00">
        <route edges="28to38 38to39 39to49"/>
    </vehicle>
    <vehicle id="434" depart="434.00">
        <route edges="1to2 2to3 3to4 4to5"/>
    </vehicle>
    <vehicle id="443" depart="443.00">
        <route edges="66to67 67to68 68to69 69to79 79to89 89to99"/>
    </vehicle>
    <vehicle id="444" depart="444.00">
        <route edges="15to16 16to17 17to27 27to37 37to47 47to57 57to67 67to77 77to78"/>
    </vehicle>
    <vehicle id="446" depart="446.00">
        <route edges="10to11 11to12 12to13 13to14 14to15 15to16 16to26 26to27"/>
    </vehicle>
    <vehicle id="447" depart="447.00">
        <route edges="62to63 63to73 73to83 83to93 93to94 94to95"/>
    </vehicle>
    <vehicle id="454" depart="454.00">
        <route edges="45to55 55to65 65to75"/>
    </vehicle>
    <vehicle id="458" depart="458.00">
        <route edges="2to12 12to13 13to14 14to24 24to34 34to44"/>
    </vehicle>
    <vehicle id="459" depart="459.00">
        <route edges="34to44 44to45 45to46 46to56 56to66 66to76"/>
    </vehicle>
    <vehicle id="460" depart="460.00">
        <route edges="75to76 76to86"/>
    </vehicle>
    <vehicle id="461" depart="461.00">
        <route edges="63to64 64to65 65to66 66to76 76to77"/>
    </vehicle>
    <vehicle id="470" depart="470.00">
        <route edges="4to5 5to6 6to7 7to17 17to27 27to28"/>
    </vehicle>
    <vehicle id="474" depart="474.00">
        <route edges="13to23 23to24 24to25 25to35 35to45 45to55 55to56"/>
    </vehicle>
    <vehicle id="476" depart="476.00">
        <route edges="50to60 60to61 61to62 62to63 63to73"/>
    </vehicle>
    <vehicle id="481" depart="481.00">
        <route edges="2to3 3to4 4to5 5to6 6to7 7to8 8to18 18to19 19to29 29to39 39to49 49to59 59to69"/>
    </vehicle>
    <vehicle id="491" depart="491.00">
        <route edges="12to22 22to23 23to24 24to25 25to26 26to27 27to37 37to47 47to57 57to58"/>
    </vehicle>
    <vehicle id="496" depart="496.00">
        <route edges="23to24 24to25 25to26 26to27 27to37 37to47 47to57 57to67 67to77 77to87 87to88"/>
    </vehicle>
    <vehicle id="498" depart="498.00">
        <route edges="20to30 30to40 40to50 50to60 60to70 70to71 71to72 72to73 73to74"/>
    </vehicle>
    <vehicle id="499" depart="499.00">
        <route edges="5to6 6to7 7to8 8to18 18to28 28to38 38to48 48to58 58to68 68to78 78to79"/>
    </vehicle>
    <vehicle id="502" depart="502.00">
        <route edges="34to35 35to45 45to55 55to65 65to66"/>
    </vehicle>
    <vehicle id="510" depart="510.00">
        <route edges="1to2 2to3 3to4 4to14 14to24 24to34 34to44 44to54 54to64 64to74 74to84 84to94"/>
    </vehicle>
    <vehicle id="511" depart="511.00">
        <route edges="24to25 25to35 35to45"/>
    </vehicle>
    <vehicle id="512" depart="512.00">
        <route edges="10to11 11to21 21to31 31to41 41to51 51to61 61to71 71to81"/>
    </vehicle>
    <vehicle id="513" depart="513.00">
        <route edges="31to32 32to33 33to34 34to35 35to36 36to37 37to38 38to39 39to49 49to59 59to69"/>
    </vehicle>
    <vehicle id="520" depart="520.00">
        <route edges="34to35 35to36 36to37"/>
    </vehicle>
    <vehicle id="528" depart="528.00">
        <route edges="61to62 62to63 63to64 64to65 65to75 75to85 85to95"/>
    </vehicle>
    <vehicle id="536" depart="536.00">
        <route edges="53to54 54to55 55to56 56to66 66to76 76to77"/>
    </vehicle>
    <vehicle id="539" depart="539.00">
        <route edges="5to6 6to7 7to8 8to18 18to28 28to29"/>
    </vehicle>
    <vehicle id="541" depart="541.00">
        <route edges="3to13 13to14 14to15 15to16 16to26 26to36"/>
    </vehicle>
    <vehicle id="542" depart="542.00">
        <route edges="55to65 65to66 66to67 67to68 68to78 78to88 88to98"/>
    </vehicle>
    <vehicle id="543" depart="543.00">
        <route edges="52to62"/>
    </vehicle>
    <vehicle id="544" depart="544.00">
        <route edges="62to72 72to73 73to74 74to75 75to76 76to77 77to87 87to88"/>
    </vehicle>
    <vehicle id="547" depart="547.00">
        <route edges="31to41 41to42 42to43 43to44 44to45 45to55 55to56"/>
    </vehicle>
    <vehicle id="557" depart="557.00">
        <route edges="74to84 84to94 94to95 95to96"/>
    </vehicle>
    <vehicle id="561" depart="561.00">
        <route edges="35to36 36to37 37to47 47to57 57to67 67to77"/>
    </vehicle>
    <vehicle id="564" depart="564.00">
        <route edges="23to24 24to25 25to26 26to27 27to28 28to38 38to48 48to58 58to68 68to78 78to88"/>
    </vehicle>
    <vehicle id="565" depart="565.00">
        <route edges="41to51 51to61 61to71 71to81 81to91 91to92 92to93 93to94 94to95 95to96 96to97 97to98"/>
    </vehicle>
    <vehicle id="570" depart="570.00">
        <route edges="56to66 66to67 67to68 68to78 78to88"/>
    </vehicle>
    <vehicle id="576" depart="576.00">
        <route edges="4to14 14to24 24to34 34to44 44to54 54to64 64to74 74to84"/>
    </vehicle>
    <vehicle id="578" depart="578.00">
        <route edges="36to37 37to38 38to48 48to58 58to59"/>
    </vehicle>
    <vehicle id="582" depart="582.00">
        <route edges="62to63 63to64 64to65 65to75"/>
    </vehicle>
    <vehicle id="584" depart="584.00">
        <route edges="4to5 5to6 6to7 7to8 8to18 18to28 28to38 38to39"/>
    </vehicle>
    <vehicle id="586" depart="586.00">
        <route edges="20to21 21to22 22to23 23to24 24to34 34to44 44to54 54to64 64to74 74to84 84to94"/>
    </vehicle>
    <vehicle id="588" depart="588.00">
        <route edges="5to15 15to16 16to17 17to27 27to37 37to47 47to57 57to67 67to68"/>
    </vehicle>
    <vehicle id="596" depart="596.00">
        <route edges="5to15 15to16 16to17 17to27 27to37 37to47 47to57"/>
    </vehicle>
    <vehicle id="598" depart="598.00">
        <route edges="1to2 2to3 3to4 4to5 5to6 6to7 7to8 8to18 18to19 19to29 29to39"/>
    </vehicle>
    <vehicle id="600" depart="600.00">
        <route edges="26to27 27to28 28to38 38to48 48to49"/>
    </vehicle>
    <vehicle id="606" depart="606.00">
        <route edges="3to13 13to23 23to33 33to43 43to53 53to63 63to73 73to83 83to84"/>
    </vehicle>
    <vehicle id="608" depart="608.00">
        <route edges="1to2 2to3 3to4 4to5 5to6 6to7 7to17 17to27 27to37 37to47 47to57 57to67 67to77 77to78"/>
    </vehicle>
    <vehicle id="612" depart="612.00">
        <route edges="42to52 52to53 53to54 54to55 55to56 56to57 57to58 58to59 59to69 69to79 79to89"/>
    </vehicle>
    <vehicle id="615" depart="615.00">
        <route edges="6to7 7to8"/>
    </vehicle>
    <vehicle id="617" depart="617.00">
        <route edges="1to11 11to12 12to13 13to23 23to33 33to43 43to53 53to63 63to73 73to74"/>
    </vehicle>
    <vehicle id="618" depart="618.00">
        <route edges="15to16 16to17 17to27 27to37 37to47 47to57 57to67 67to77 77to87 87to88"/>
    </vehicle>
    <vehicle id="622" depart="622.00">
        <route edges="41to51 51to52 52to53 53to54 54to64 64to74 74to84"/>
    </vehicle>
    <vehicle id="623" depart="623.00">
        <route edges="1to11 11to12 12to13 13to14 14to15 15to16 16to17 17to27 27to37 37to47 47to57 57to67"/>
    </vehicle>
    <vehicle id="626" depart="626.00">
        <route edges="62to63 63to64 64to65 65to66 66to67 67to68 68to78"/>
    </vehicle>
    <vehicle id="627" depart="627.00">
        <route edges="16to17 17to18 18to28 28to38 38to48 48to58 58to68 68to78 78to88"/>
    </vehicle>
    <vehicle id="629" depart="629.00">
        <route edges="56to66 66to67 67to77 77to87 87to97"/>
    </vehicle>
    <vehicle id="630" depart="630.00">
        <route edges="62to63 63to64 64to65 65to66 66to67 67to68 68to78 78to88"/>
    </vehicle>
    <vehicle id="631" depart="631.00">
        <route edges="2to12 12to13 13to14 14to15 15to16 16to17 17to18 18to28 28to38 38to48 48to49"/>
    </vehicle>
    <vehicle id="632" depart="632.00">
        <route edges="23to24"/>
    </vehicle>
    <vehicle id="639" depart="639.00">
        <route edges="14to24 24to25 25to26 26to27 27to37 37to38"/>
    </vehicle>
    <vehicle id="647" depart="647.00">
        <route edges="22to32 32to33 33to43 43to53 53to63"/>
    </vehicle>
    <vehicle id="648" depart="648.00">
        <route edges="72to73 73to74 74to84 84to85"/>
    </vehicle>
    <vehicle id="649" depart="649.00">
        <route edges="5to15 15to16 16to17"/>
    </vehicle>
    <vehicle id="655" depart="655.00">
        <route edges="10to11 11to12 12to13 13to14 14to15 15to25 25to35"/>
    </vehicle>
    <vehicle id="657" depart="657.00">
        <route edges="23to24 24to25 25to26 26to27 27to37 37to38"/>
    </vehicle>
    <vehicle id="658" depart="658.00">
        <route edges="21to31 31to32 32to33 33to34 34to35 35to36 36to46"/>
    </vehicle>
    <vehicle id="663" depart="663.00">
        <route edges="73to74 74to84 84to94 94to95"/>
    </vehicle>
    <vehicle id="664" depart="664.00">
        <route edges="0to1 1to2 2to3 3to4 4to5 5to6 6to7 7to8 8to18 18to28 28to38 38to48 48to49"/>
    </vehicle>
    <vehicle id="670" depart="670.00">
        <route edges="10to11 11to21 21to31 31to41 41to51 51to61 61to71 71to81 81to91 91to92 92to93 93to94"/>
    </vehicle>
    <vehicle id="680" depart="680.00">
        <route edges="8to18 18to28 28to38 38to48 48to58 58to68"/>
    </vehicle>
    <vehicle id="684" depart="684.00">
        <route edges="14to15 15to16 16to17 17to27"/>
    </vehicle>
    <vehicle id="685" depart="685.00">
        <route edges="2to12 12to13"/>
    </vehicle>
    <vehicle id="690" depart="690.00">
        <route edges="11to12 12to13 13to14 14to15 15to16 16to17 17to27 27to37 37to47 47to57 57to67 67to68"/>
    </vehicle>
    <vehicle id="692" depart="692.00">
        <route edges="21to31 31to32 32to33 33to34 34to44 44to54"/>
    </vehicle>
    <vehicle id="696" depart="696.00">
        <route edges="22to23 23to24"/>
    </vehicle>
    <vehicle id="697" depart="697.00">
        <route edges="68to69"/>
    </vehicle>
    <vehicle id="703" depart="703.00">
        <route edges="15to16 16to17 17to18 18to28 28to38 38to48 48to58 58to68 68to78 78to88 88to98"/>
    </vehicle>
    <vehicle id="706" depart="706.00">
        <route edges="24to34 34to44 44to54"/>
    </vehicle>
    <vehicle id="707" depart="707.00">
        <route edges="50to51 51to61 61to71 71to81 81to91 91to92 92to93 93to94"/>
    </vehicle>
    <vehicle id="710" depart="710.00">
        <route edges="31to41 41to51 51to61 61to71 71to81 81to91 91to92 92to93 93to94 94to95 95to96 96to97 97to98 98to99"/>
    </vehicle>
    <vehicle id="711" depart="711.00">
        <route edges="30to31 31to32 32to33 33to43 43to53 53to54"/>
    </vehicle>
    <vehicle id="718" depart="718.00">
        <route edges="30to31 31to32 32to33 33to34 34to35 35to45 45to46"/>
    </vehicle>
    <vehicle id="728" depart="728.00">
        <route edges="61to71 71to72 72to73 73to74 74to75 75to76 76to77"/>
    </vehicle>
    <vehicle id="729" depart="729.00">
        <route edges="23to33 33to34 34to35 35to36 36to37 37to38 38to39 39to49 49to59 59to69"/>
    </vehicle>
    <vehicle id="731" depart="731.00">
        <route edges="31to32 32to33 33to34 34to35 35to36 36to46 46to56 56to66 66to76 76to86"/>
    </vehicle>
    <vehicle id="735" depart="735.00">
        <route edges="43to53 53to54 54to64 64to74 74to84"/>
    </vehicle>
    <vehicle id="737" depart="737.00">
        <route edges="3to13 13to14 14to15 15to16 16to17 17to18 18to28 28to38 38to48 48to58 58to68 68to78 78to88 88to98"/>
    </vehicle>
    <vehicle id="739" depart="739.00">
        <route edges="31to32 32to33 33to34 34to44 44to54 54to64 64to74 74to84"/>
    </vehicle>
    <vehicle id="744" depart="744.00">
        <route edges="48to58 58to68 68to78 78to88 88to98"/>
    </vehicle>
    <vehicle id="748" depart="748.00">
        <route edges="2to12 12to13 13to14 14to24 24to34"/>
    </vehicle>
    <vehicle id="749" depart="749.00">
        <route edges="21to22 22to23 23to24"/>
    </vehicle>
    <vehicle id="759" depart="759.00">
        <route edges="11to21 21to22 22to23 23to24 24to34 34to44 44to54 54to64 64to74 74to84 84to94"/>
    </vehicle>
    <vehicle id="762" depart="762.00">
        <route edges="20to30 30to40 40to50 50to60 60to70 70to80 80to81 81to82 82to83 83to84"/>
    </vehicle>
    <vehicle id="763" depart="763.00">
        <route edges="15to25 25to26 26to27 27to37 37to47"/>
    </vehicle>
    <vehicle id="772" depart="772.00">
        <route edges="64to65 65to66 66to67 67to68 68to69 69to79 79to89"/>
    </vehicle>
    <vehicle id="773" depart="773.00">
        <route edges="11to12 12to13 13to14 14to15 15to16 16to17 17to18 18to28 28to38 38to48 48to58 58to68 68to69"/>
    </vehicle>
    <vehicle id="775" depart="775.00">
        <route edges="1to2 2to3 3to4 4to5 5to6 6to16 16to26 26to36 36to46"/>
    </vehicle>
    <vehicle id="776" depart="776.00">
        <route edges="67to68 68to78 78to88"/>
    </vehicle>
    <vehicle id="777" depart="777.00">
        <route edges="82to83 83to84 84to85 85to86 86to87 87to88 88to89"/>
    </vehicle>
    <vehicle id="789" depart="789.00">
        <route edges="54to55 55to56 56to57 57to58 58to59 59to69 69to79 79to89"/>
    </vehicle>
    <vehicle id="790" depart="790.00">
        <route edges="74to75 75to85 85to95 95to96"/>
    </vehicle>
    <vehicle id="800" depart="800.00">
        <route edges="55to56 56to57 57to58 58to68"/>
    </vehicle>
    <vehicle id="802" depart="802.00">
        <route edges="32to33 33to34 34to44"/>
    </vehicle>
    <vehicle id="806" depart="806.00">
        <route edges="52to62 62to63 63to64 64to65 65to66 66to67 67to68 68to69 69to79"/>
    </vehicle>
    <vehicle id="818" depart="818.00">
        <route edges="20to21 21to22 22to23 23to24 24to25 25to35"/>
    </vehicle>
    <vehicle id="820" depart="820.00">
        <route edges="20to30 30to40 40to50 50to51 51to61"/>
    </vehicle>
    <vehicle id="824" depart="824.00">
        <route edges="47to48 48to58 58to68 68to78 78to88 88to89"/>
    </vehicle>
    <vehicle id="835" depart="835.00">
        <route edges="23to33 33to34 34to35 35to36 36to46 46to47"/>
    </vehicle>
    <vehicle id="844" depart="844.00">
        <route edges="12to13"/>
    </vehicle>
    <vehicle id="849" depart="849.00">
        <route edges="43to44 44to45 45to46"/>
    </vehicle>
    <vehicle id="852" depart="852.00">
        <route edges="54to55 55to65 65to66"/>
    </vehicle>
    <vehicle id="853" depart="853.00">
        <route edges="40to41 41to51 51to61 61to62"/>
    </vehicle>
    <vehicle id="854" depart="854.00">
        <route edges="71to81 81to82 82to83 83to84 84to85 85to86 86to87 87to88 88to89"/>
    </vehicle>
    <vehicle id="856" depart="856.00">
        <route edges="41to42 42to43 43to44 44to45 45to55"/>
    </vehicle>
    <vehicle id="859" depart="859.00">
        <route edges="2to12 12to13 13to14 14to15 15to16 16to26 26to36 36to46 46to56 56to66 66to76 76to86 86to96"/>
    </vehicle>
    <vehicle id="863" depart="863.00">
        <route edges="53to54 54to55"/>
    </vehicle>
    <vehicle id="865" depart="865.00">
        <route edges="38to48 48to58"/>
    </vehicle>
    <vehicle id="866" depart="866.00">
        <route edges="26to36 36to37 37to38 38to39 39to49 49to59"/>
    </vehicle>
    <vehicle id="872" depart="872.00">
        <route edges="10to20 20to30 30to31 31to32 32to33 33to34 34to35 35to36"/>
    </vehicle>
    <vehicle id="873" depart="873.00">
        <route edges="32to33 33to34 34to35 35to36 36to37 37to38 38to39 39to49"/>
    </vehicle>
    <vehicle id="878" depart="878.00">
        <route edges="13to14 14to15 15to25 25to35 35to45 45to46"/>
    </vehicle>
    <vehicle id="889" depart="889.00">