<?xml version="1.0" encoding="UTF-8"?>

<!-- generated on Thu Apr  7 09:27:45 2016 by SUMO duarouter Version 0.25.0
<?xml version="1.0" encoding="UTF-8"?>

<configuration xmlns:xsi="http://www.w3.org/2001/XMLSchema-instance" xsi:noNamespaceSchemaLocation="http://sumo.dlr.de/xsd/duarouterConfiguration.xsd">

    <input>
        <net-file value="erlangen.net.xml"/>
        <trip-files value="trips.trips.xml"/>
    </input>

    <output>
        <output-file value="erlangen.rou.xml.1"/>
    </output>

</configuration>
-->

<routes xmlns:xsi="http://www.w3.org/2001/XMLSchema-instance" xsi:noNamespaceSchemaLocation="http://sumo.dlr.de/xsd/routes_file.xsd">
    <vehicle id="0" depart="0.00">
        <route edges="-4006702#2 4006702#2 -28269598"/>
    </vehicle>
    <vehicle id="1" depart="1.00">
        <route edges="4006668 23339459 30405358#1 85355912 85355911#0 25472101 30405352 30350445 -33174302#1 -33174302#0 -32270595 -29900561#1 -29900561#0 -8403001 -4006674#4 -4006674#3 -4006674#2 -4006674#1 -4006674#0 32270593 -32270593"/>
    </vehicle>
    <vehicle id="2" depart="2.00">
        <route edges="-31241851#1 31241851#1 31241851#2 -31255203#0 -4006702#0 -3013106#2 -3013106#1 -3013106#0 -3998612#2 -3998612#1 -3998612#0 3998612#0"/>
    </vehicle>
    <vehicle id="3" depart="3.00">
        <route edges="4006693#1 -4006693#1 -4006693#0 25398494#0 113939242#2 113939241 -113939241"/>
    </vehicle>
    <vehicle id="4" depart="4.00">
        <route edges="-31270441 31777493#1 35842306#0 35842306#1 4047446#0 4047446#1 25472079 30405352 19796637 122161381 30350448 8364476"/>
    </vehicle>
    <vehicle id="5" depart="5.00">
        <route edges="4047446#1 5931612 30350450#0 30350450#1 30350450#2 4006702#0 31255203#0 -31241851#2 -31241851#1 -31241851#0 31241816#3 31241835#1 -31241835#1"/>
    </vehicle>
    <vehicle id="6" depart="6.00">
        <route edges="4006693#0 -4006693#0 25398494#0 113939244#1 113939244#2 -126606716 23339459 30405358#1"/>
    </vehicle>
    <vehicle id="7" depart="7.00">
        <route edges="-31241834#1 31241848 31241851#0 31241851#1 31241851#2 -31255203#0 -4006702#0 4319352#1 44069041#0 44069041#1 25472079 30405352 30350445 -33174302#1 -33174302#0 -32302591#5 -32302591#4 -32302591#3 -4006684"/>
    </vehicle>
    <vehicle id="8" depart="8.00">
        <route edges="4006702#2 -4006702#2 -4006702#1 -4006702#0 4319352#1 44069041#0 44069041#1 25472079 30405352 30350445 -33174302#1 -33174302#0 -32270595 32270595"/>
    </vehicle>
    <vehicle id="9" depart="9.00">
        <route edges="8402998#1 -8402998#1 -8402997 32270595 33174302#0 33174302#1 4686970#0 4686970#1 122161381 30350448 8364476 30350450#0 30350450#1 30350450#2 4006702#0 31255203#0 -31241851#2 -31241851#1 -31241851#0 -31241816#1 -31241816#0"/>
    </vehicle>
    <vehicle id="10" depart="10.00">
        <route edges="4006674#1 4006674#2 4006674#3 4006674#4 8403001 -4006688#4 -4006688#3 -4006688#2 -4006688#1 -4006688#0 31401017#1 31401017#2 25398494#0 113939242#2 113939241 -37591481 -28269601"/>
    </vehicle>
    <vehicle id="11" depart="11.00">
        <route edges="5931612 30350450#0 30350450#1 -3998643#2 -3998615#1 3998615#1"/>
    </vehicle>
    <vehicle id="12" depart="12.00">
        <route edges="-29900565#0 29900565#0 29900565#1 29900565#2 29900565#3 33174302#0 -33174302#0"/>
    </vehicle>
    <vehicle id="13" depart="13.00">
        <route edges="4006688#4 29900561#0 29900561#1 32270595 33174302#0 33174302#1 4686970#0 4686970#1 122161381 30350448 8364476 30350450#0 -3998645#2 -3998645#1 -4006726#2 -4006726#1 3998643#1"/>
    </vehicle>
    <vehicle id="14" depart="14.00">
        <route edges="-4006702#1 -4006702#0 4319352#1 44069041#0 25472134 30751813 4047446#0 4047446#1"/>
    </vehicle>
    <vehicle id="15" depart="15.00">
        <route edges="28613727#0 28613727#1 -94344940#0 28768072 -28613737 -4006702#0 4319352#1 44069041#0 44069041#1 25472079 30405352 30350445 -33174302#1 -33174302#0 -32270595 8402997"/>
    </vehicle>
    <vehicle id="16" depart="16.00">
        <route edges="23360299 -5445204#1 113939244#2 -126606716 23339459 30405358#1 85355912 85355911#0 85355911#1 30405356 5931612 30350450#0 30350450#1 30350450#2 4006702#0 31255203#0 -31241851#2 -31241853#2 -31241838#0"/>
    </vehicle>
    <vehicle id="17" depart="17.00">
        <route edges="-31241816#0 31241816#0 31241816#1 31241851#0 31241851#1 31241851#2 -31255203#0 4006702#1"/>
    </vehicle>
    <vehicle id="18" depart="18.00">
        <route edges="-4006701 -4006702#2 -4006702#1 -4006702#0 4319352#1 44069041#0 25472134"/>
    </vehicle>
    <vehicle id="19" depart="19.00">
        <route edges="32302591#5 33174302#0 33174302#1 4686970#0 4686970#1 122161381 30350448 8364476 30350450#0 30350450#1 -3998643#2 -3998615#1 -3998615#0"/>
    </vehicle>
    <vehicle id="20" depart="20.00">
        <route edges="-4006705#2 -4006705#1 4006703#1 28269598 -4006702#2 -4006702#1 -4006702#0 4319352#1 44069041#0 44069041#1 25472079 30405352 30350445 -33174302#1 -33174302#0 -32270595 -29900561#1 -29900561#0 -4006688#4 -4006688#3 -4006688#2 -4006688#1 -4006688#0 -31401017#0"/>
    </vehicle>
    <vehicle id="21" depart="21.00">
        <route edges="31401017#2 4006693#0"/>
    </vehicle>
    <vehicle id="22" depart="22.00">
        <route edges="32302591#1 32302591#2 32302591#3 32302591#4 32302591#5 33174302#0 33174302#1 4686970#0 4686970#1 122161390"/>
    </vehicle>
    <vehicle id="23" depart="23.00">
        <route edges="-35842306#0 35842306#0 35842306#1 4047446#0 4047446#1 25472079 30405352 19796637 122161390 -30357194 3998612#0 3998645#0"/>
    </vehicle>
    <vehicle id="24" depart="24.00">
        <route edges="31241855#1 31241853#1 -31241838#0 -31255203#1 -31255203#0 -4006702#0 4319352#1 44069041#0 44069041#1 4400949 31982182#0 4047241 4797872 4797871 4006668 126606716 113939242#0 5445204#1 -5445204#1"/>
    </vehicle>
    <vehicle id="25" depart="25.00">
        <route edges="-10425128#0 10425128#0 10425128#1 -29900564#3 -29900564#2 -29900564#1 -8402998#2 -8402998#1 -8402997 32270595 33174302#0 33174302#1 31353573#0 31353573#1 -41973977"/>
    </vehicle>
    <vehicle id="26" depart="26.00">
        <route edges="4797871 4006668 23339459 30405358#1 85355912 85355911#0 85355911#1 30405356 5931612 30350450#0 30350450#1 30350450#2 4006702#0 31255203#0 -31241851#2 -31241851#1 -31241851#0 -31241816#1 -31241816#0 -31241855#0 31241855#0"/>
    </vehicle>
    <vehicle id="27" depart="27.00">
        <route edges="3998615#2 -4099270#0 -4006726#1"/>
    </vehicle>
    <vehicle id="28" depart="28.00">
        <route edges="32302591#0 32302591#1 32302591#2 32302591#3 32302591#4 32302591#5 33174302#0 33174302#1 4686970#0 25472257 -30357194 3998612#0"/>
    </vehicle>
    <vehicle id="29" depart="29.00">
        <route edges="113939244#2 -126606716 23339459 30405358#1 85355912 85355911#0 25472101 30405352 30350445 31353573#0 31353573#1 -41973977 -32271499"/>
    </vehicle>
    <vehicle id="30" depart="30.00">
        <route edges="-10419402 10419402 -4006693#1 -23605595 -8403007 -29900564#1 -8402998#2 -8402998#1 -8402997 32270595 33174302#0 33174302#1 4686970#0 4686970#1 122161381 30350448 8364476 30350450#0 30350450#1 30350450#2 4006702#0 4006702#1 -4006702#1"/>
    </vehicle>
    <vehicle id="31" depart="31.00">
        <route edges="113939244#0 113939244#1 113939244#2 -126606716 23339459 30405358#1 85355912 85355911#0 85355911#1 30405356 5931612 30350450#0 30350450#1 30350450#2 -3013106#2 -3013106#1"/>
    </vehicle>
    <vehicle id="32" depart="32.00">
        <route edges="-31241851#0 31241851#0 31241851#1 31241851#2 -31255203#0 -4006702#0 4319352#1 44069041#0 44069041#1 25472079 30405352 30350445 -33174302#1 -33174302#0 -29900565#3 -29900565#2"/>
    </vehicle>
    <vehicle id="33" depart="33.00">
        <route edges="-41973977 41973977 -3998613#2 -3998613#1 -3998613#0 3998612#0 3998612#1"/>
    </vehicle>
    <vehicle id="34" depart="34.00">
        <route edges="29900565#2 29900565#3 33174302#0 33174302#1 4686970#0 4686970#1 122161381 30350448 30350449 4047309 30751813 -35842306#1 35842306#1"/>
    </vehicle>
    <vehicle id="35" depart="35.00">
        <route edges="8364476 30350450#0 30350450#1 30350450#2 4006702#0 31255203#0 -31241851#2 -31241851#1 -31241851#0 31241816#3 31241835#1 -31241835#1"/>
    </vehicle>
    <vehicle id="36" depart="36.00">
        <route edges="-32302591#4 32302591#4 32302591#5 33174302#0 33174302#1 4686970#0 25472257 -30357194 3998612#0 -4006725#1 -4872369 4872369"/>
    </vehicle>
    <vehicle id="38" depart="38.00">
        <route edges="4900041#2 4900041#3 4900041#0 -4900043"/>
    </vehicle>
    <vehicle id="39" depart="39.00">
        <route edges="-4006724#1 4006724#1 4006724#2 3998643#0 3998643#1 -3998643#1"/>
    </vehicle>
    <vehicle id="40" depart="40.00">
        <route edges="4006674#1 4006674#2 4006674#3 4006674#4 8403001 29900561#0 29900561#1 32270595 33174302#0 33174302#1 31353573#0 31353573#1 -3998613#2 -3998613#1 3998653"/>
    </vehicle>
    <vehicle id="41" depart="41.00">
        <route edges="28613727#0 28613727#1 -94344940#0 28768072 -28613737 4006702#1 4006702#2 -23805514#1 -32611578"/>
    </vehicle>
    <vehicle id="42" depart="42.00">
        <route edges="-3998612#1 -3998612#0 30357194 25472299 30350448 30350449 25472079 30405352 30350445 -33174302#1 -33174302#0 -32270595 8402997 -8402997"/>
    </vehicle>
    <vehicle id="43" depart="43.00">
        <route edges="4797872 4797871 4006668 23339459 30405358#1 85355912 85355911#0 85355911#1 30405356 5931612 30350450#0 30350450#1 30350450#2 4006702#0 28613737 94344941 94344940#0 -94344940#0"/>
    </vehicle>
    <vehicle id="44" depart="44.00">
        <route edges="4392769 28269601 37591481 -113939241 113939244#0 -25398494#0 -31401017#2 -31401017#1 4006688#0 4006688#1 4006688#2 4006688#3 4006688#4 29900561#0 29900561#1 32270595 -32302591#5 -32302591#4 -32302591#3 -32302591#2 4006683"/>
    </vehicle>
    <vehicle id="45" depart="45.00">
        <route edges="-31720633 -31720632#0 -4006705#2 -4006705#1 4006703#1 28269598 -4006702#2 -4006702#1 -4006702#0 4319352#1 44069041#0 44069041#1 25472079 30405352 19796637 122161381 30350448 30350449"/>
    </vehicle>
    <vehicle id="46" depart="46.00">
        <route edges="-23605600#1 4006674#4 8403001 29900561#0 29900561#1 32270595 33174302#0 33174302#1 31353573#0 31353573#1 -31353573#1"/>
    </vehicle>
    <vehicle id="47" depart="47.00">
        <route edges="35842306#1 4047446#0 4047446#1 25472079 30405352 30350445 -33174302#1 -33174302#0 -32270595 8402997 8402998#1 8402998#2 29900564#1 29900564#2 29900564#3 -10425128#1 23341293"/>
    </vehicle>
    <vehicle id="48" depart="48.00">
        <route edges="-29900567 29900567 31401017#0 4006688#0 4006688#1 4006688#2 4006688#3 4006688#4 29900561#0 29900561#1 32270595 33174302#0 33174302#1 4686970#0 4686970#1 122161381 30350448 30350449 4047309 30751813 -35842306#1 -35842306#0 -31777493#1 -31777493#0 31777493#0"/>
    </vehicle>
    <vehicle id="49" depart="49.00">
        <route edges="-4006688#1 4006688#1 4006688#2 4006688#3 4006688#4 29900561#0 29900561#1 32270595 33174302#0 33174302#1 4686970#0 4686970#1 122161381 30350448 30350449 4400949 31982182#0 4047241 4797872"/>
    </vehicle>
    <vehicle id="50" depart="50.00">
        <route edges="-4006726#2 4006726#2 -3998645#0 -3998612#0 30357194 25472299 30350448 30350449 25472079 30405352 30350445 -33174302#1 -33174302#0 -32302591#5"/>
    </vehicle>
    <vehicle id="51" depart="51.00">
        <route edges="-23341293 10425128#1 -29900564#3 -29900564#2 -29900564#1 -8402998#2 -8402998#1 -8402997 32270595 33174302#0 33174302#1 4686970#0 4686970#1 122161381 30350448 8364476 30350450#0 30350450#1 30350450#2 4006702#0 28613737 94344941 94344940#0 -28613727#1 -28613727#0"/>
    </vehicle>
    <vehicle id="52" depart="52.00">
        <route edges="-3998615#3 -4099270#0 4006726#2 -3998645#0 -3998612#0 3998613#0 3998613#1 3998613#2 -31353573#1 4006673 -32302591#4 -32302591#3 -32302591#2 -32302591#1 -32302591#0 4006672 32270593"/>
    </vehicle>
    <vehicle id="53" depart="53.00">
        <route edges="-8402998#2 -8402998#1 -8402997 32270595 33174302#0 33174302#1 4686970#0 4686970#1 122161381 30350448 8364476 30350450#0 30350450#1 30350450#2 4006702#0 4006702#1 4900043 4900041#1 4900041#2 4900041#3 4900041#0"/>
    </vehicle>
    <vehicle id="54" depart="54.00">
        <route edges="23360299 -5445204#1 113939244#2 -126606716 23339459 30405358#1 85355912 85355911#0 85355911#1 30405356 4047309 30751813 -35842306#1 35842306#1"/>
    </vehicle>
    <vehicle id="55" depart="55.00">
        <route edges="25472101 30405352 19796637 122161381 30350448 8364476 30350450#0 30350450#1 30350450#2 4006702#0"/>
    </vehicle>
    <vehicle id="56" depart="56.00">
        <route edges="-10425128#1 -10425128#0 -4006693#2 -4006693#1 -4006693#0"/>
    </vehicle>
    <vehicle id="57" depart="57.00">
        <route edges="31777493#0 31777493#1 35842306#0 35842306#1 4047446#0 4047446#1 5931612 30350450#0 30350450#1 30350450#2 4006702#0 28613737 94344941 28768072"/>
    </vehicle>
    <vehicle id="58" depart="58.00">
        <route edges="4006683 4006674#2 4006674#3 4006674#4 8403001 29900561#0 29900561#1 8402997 -8402998#0 -29900565#2 -29900565#1 -29900565#0"/>
    </vehicle>
    <vehicle id="59" depart="59.00">
        <route edges="4006674#2 4006674#3 4006674#4 8403001 -4006688#4 -4006688#3 -4006688#2 -4006688#1 -4006688#0 31401017#1 31401017#2 25398494#0 113939242#2 113939241 -37591481 -28269601 28269601"/>
    </vehicle>
    <vehicle id="60" depart="60.00">
        <route edges="30350445 4686970#0 4686970#1 122161381 30350448 30350449 4400949 31982182#0 4047241 4797872 4797871 4006668 126606716"/>
    </vehicle>
    <vehicle id="61" depart="61.00">
        <route edges="31255203#0 -31255203#0 -4006702#0 4319352#1 44069041#0"/>
    </vehicle>
    <vehicle id="62" depart="62.00">
        <route edges="4006726#2 -3998645#0 -3998612#0 30357194 25472299 30350448 30350449 4047309 30751813 -35842306#1 -35842306#0 -4900741 4099309"/>
    </vehicle>
    <vehicle id="63" depart="63.00">
        <route edges="30751813 4047446#0 25472129 31982182#0 4047241 4797872 4797871 4006668 23339459 30405358#1 85355912 85355911#0"/>
    </vehicle>
    <vehicle id="64" depart="64.00">
        <route edges="-3998643#0 3998643#0"/>
    </vehicle>
    <vehicle id="65" depart="65.00">
        <route edges="32270592#0 32270592#1 4047532 31401018 -23605600#2"/>
    </vehicle>
    <vehicle id="66" depart="66.00">
        <route edges="-29900567 29900567 31401017#0 31401017#1 31401017#2 25398494#0 113939242#2"/>
    </vehicle>
    <vehicle id="67" depart="67.00">
        <route edges="29900561#0 -29900561#0 29900564#0 29900564#1 8403007 23605595 4006693#1 -10419402 -23570844#2 -5445204#3"/>
    </vehicle>
    <vehicle id="68" depart="68.00">
        <route edges="-31401017#2 -31401017#1 4006688#0 4006688#1 4006688#2 4006688#3 4006688#4 29900561#0 29900561#1 32270595 -32302591#5 -32302591#4 -32302591#3 -32302591#2 -32302591#1 -32302591#0 32302591#0"/>
    </vehicle>
    <vehicle id="69" depart="69.00">
        <route edges="-3998645#1 -4006726#2"/>
    </vehicle>
    <vehicle id="70" depart="70.00">
        <route edges="-32270592#1 -32270592#0 -32270593 4006674#0 4006674#1 4006674#2 4006674#3 4006674#4 8403001 29900561#0 29900561#1 32270595 33174302#0 33174302#1 4686970#0 4686970#1 122161381 30350448 8364476 30350450#0 30350450#1 30350450#2 4006702#0 31255203#0 -31241851#2 -31241851#1 -31241851#0 -31241816#1"/>
    </vehicle>
    <vehicle id="71" depart="71.00">
        <route edges="-37591481 37591481 -113939241 113939244#0 113939244#1 113939244#2 -126606716 -4006668 -15259223"/>
    </vehicle>
    <vehicle id="72" depart="72.00">
        <route edges="-31720633 -31720632#0 -4006705#2 -4006705#1 4006703#1 28269598 -4006702#2 -4006702#1 -4006702#0 4319352#1 44069041#0 44069041#1 25472079 30405352 30350445 -33174302#1 -33174302#0 -32270595 8402997 8402998#1 8402998#2 29900564#1 -29900564#1"/>
    </vehicle>
    <vehicle id="73" depart="73.00">
        <route edges="-8402998#2 -8402998#1 -8402997 32270595 33174302#0 33174302#1 4686970#0 4686970#1 122161381 30350448 30350449 4047309 30751813 -35842306#1 -35842306#0 35842306#0"/>
    </vehicle>
    <vehicle id="74" depart="74.00">
        <route edges="31241848 31241851#0 31241851#1 31241851#2 -31255203#0 -4006702#0 4319352#1 44069041#0 25472134 30751813 -35842306#1 -35842306#0 -4900741 -4900739#2 -4900739#1"/>
    </vehicle>
    <vehicle id="75" depart="75.00">
        <route edges="-4690348 4900739#2 4900741 35842306#0 35842306#1 4047446#0 4047446#1 25472079 30405352 30350445 -33174302#1 -33174302#0 -32270595 -29900561#1 -29900561#0 29900561#0"/>
    </vehicle>
    <vehicle id="76" depart="76.00">
        <route edges="-8402997 32270595 33174302#0 33174302#1 4686970#0 4686970#1 122161381 30350448 30350449 4047309 30751813 -35842306#1 35842306#1"/>
    </vehicle>
    <vehicle id="77" depart="77.00">
        <route edges="4006724#2 3998643#0 -3998643#0"/>
    </vehicle>
    <vehicle id="78" depart="78.00">
        <route edges="35842306#1 4047446#0 4047446#1 5931612 30350450#0 30350450#1 30350450#2 4006702#0 4006702#1 4006702#2 -28269598 -4006703#1 -4006703#0"/>
    </vehicle>
    <vehicle id="79" depart="79.00">
        <route edges="31777493#0 31777493#1 35842306#0 35842306#1 4047446#0 4047446#1 25472079 30405352 30350445 -33174302#1 -33174302#0 -32302591#5 -32302591#4 -32302591#3 32302591#3"/>
    </vehicle>
    <vehicle id="80" depart="80.00">
        <route edges="23350930 4900041#3 4900041#0 -4900043 -4006702#1 31255203#0 -31241851#2 -31241851#1 -31241851#0 31241816#3 31241835#1 31241834#0"/>
    </vehicle>
    <vehicle id="81" depart="81.00">
        <route edges="28613727#0 28613727#1 -94344940#0 28768072 -28613737 -4006702#0 -3013106#2 3998615#0 3998615#1 -3998615#1"/>
    </vehicle>
    <vehicle id="82" depart="82.00">
        <route edges="-4006726#1 4006726#1 4006726#2 -3998645#0 -3998612#0 30357194 25472299 30350448"/>
    </vehicle>
    <vehicle id="83" depart="83.00">
        <route edges="31241816#3 -31241816#3 31241851#0 31241851#1 31241851#2 -31255203#0 -4006702#0 4319352#1 44069041#0 44069041#1 25472079 30405352 30350445 31353573#0 -31353573#0"/>
    </vehicle>
    <vehicle id="84" depart="84.00">
        <route edges="5445204#2 -5445204#2 -5445204#1 113939242#1 -25398494#0 4006693#0 -23605595 -8403007 29900564#2 -4006691 -29900565#0"/>
    </vehicle>
    <vehicle id="85" depart="85.00">
        <route edges="122161381 30350448 8364476 30350450#0 30350450#1 30350450#2 4006702#0 4006702#1 4006702#2 -23805514#1 -32611578"/>
    </vehicle>
    <vehicle id="86" depart="86.00">
        <route edges="4099309 4900739#1 4900739#2 4900741 35842306#0 35842306#1 4047446#0 4047446#1 25472079"/>
    </vehicle>
    <vehicle id="87" depart="87.00">
        <route edges="4047316 31777493#0 31777493#1 35842306#0 35842306#1 4047446#0 4047446#1 25472079 30405352 19796637"/>
    </vehicle>
    <vehicle id="88" depart="88.00">
        <route edges="28768072 -28613737 -4006702#0 4319352#1 44069041#0 44069041#1 4400949 31982182#0 4047241 4797872 4797871 4006668 23339459"/>
    </vehicle>
    <vehicle id="89" depart="89.00">
        <route edges="23360299 -5445204#1 113939244#2 -126606716 23339459 30405358#1 85355912 85355911#0 85355911#1 30405356 5931612 30350450#0 30350450#1 30350450#2 4006702#0 28613737 94344941 94344940#0 94344940#2"/>
    </vehicle>
    <vehicle id="90" depart="90.00">
        <route edges="25210699 -4006705#1 4006703#1 28269598 -4006702#2 -4006702#1 -4006702#0 4319352#1 44069041#0 25472134 30751813 -35842306#1 -35842306#0 -4900741 -4900739#2 -4900739#1 -4099309"/>
    </vehicle>
    <vehicle id="91" depart="91.00">
        <route edges="-4006702#0 4319352#1 44069041#0 44069041#1 25472079 30405352 30350445 -33174302#1 -33174302#0 -32270595 -29900561#1 -29900561#0 -4006688#4 -4006688#3 -4006688#2 -4006688#1 -4006688#0 -31401017#0 -29900567 -31401018 31401018"/>
    </vehicle>
    <vehicle id="92" depart="92.00">
        <route edges="31241835#0 -31241816#3 31241851#0 31241851#1 31241851#2 -31255203#0 -4006702#0 4319352#1 44069041#0 25472134 30751813 -35842306#1"/>
    </vehicle>
    <vehicle id="93" depart="93.00">
        <route edges="-31241851#0 31241851#0 31241851#1 31241851#2 -31255203#0 -4006702#0 4319352#1 44069041#0 44069041#1 25472079 30405352 30350445 -33174302#1 -33174302#0 -32270595 -29900561#1 -29900561#0 -4006688#4 -4006688#3 -4006688#2 -4006688#1 -4006688#0 4006688#0"/>
    </vehicle>
    <vehicle id="94" depart="94.00">
        <route edges="23360299 -5445204#1 113939244#2 -126606716 23339459 30405358#1 85355912 85355911#0 85355911#1 30405356 5931612 30350450#0 30350450#1 30350450#2 -3013106#2 -3013106#1 -3013106#0"/>
    </vehicle>
    <vehicle id="95" depart="95.00">
        <route edges="4006675 -32270592#0 -32270593 -4006672 32302591#0 32302591#1 32302591#2 32302591#3 32302591#4 -32302591#4"/>
    </vehicle>
    <vehicle id="96" depart="96.00">
        <route edges="-31720632#1 -31720632#0 -4006705#2 -4006705#1 4006703#1 28269598 -4006702#2 -4006702#1 -4006702#0 4319352#1 44069041#0 44069041#1 25472079 30405352 30350445 -33174302#1 -33174302#0 -32270595 -29900561#1 -29900561#0 -4006688#4 -4006688#3 -4006688#2 -4006688#1 -4006688#0 31401017#1 31401017#2 -31401017#2"/>
    </vehicle>
    <vehicle id="97" depart="97.00">
        <route edges="25472101 30405352 19796637 122161381 30350448 30350449 4047309 30751813 -35842306#1 -35842306#0 -4900741 -4900739#2 4690348"/>
    </vehicle>
    <vehicle id="98" depart="98.00">
        <route edges="4047446#1 25472079 30405352 30350445 -33174302#1 -33174302#0 -32270595"/>
    </vehicle>
    <vehicle id="100" depart="100.00">
        <route edges="-29900564#5 4006694 -4006693#3 -4006693#2 -10419402 -23570844#2 -5445204#3"/>
    </vehicle>
    <vehicle id="101" depart="101.00">
        <route edges="25472299 30350448 30350449 25472079 30405352 30350445 -33174302#1 -33174302#0 -32270595 8402997 8402998#1 8402998#2 29900564#1 29900564#2"/>
    </vehicle>
    <vehicle id="102" depart="102.00">
        <route edges="-31241855#0 31241855#0 31241816#0 31241816#1 31241851#0 31241851#1 31241851#2 -31255203#0 -4006702#0"/>
    </vehicle>
    <vehicle id="103" depart="103.00">
        <route edges="-3998613#1 3998613#1 3998613#2 -31353573#1 -31353573#0 -33174302#1 -33174302#0 -32270595 -29900561#1 -29900561#0 -8403001"/>
    </vehicle>
    <vehicle id="104" depart="104.00">
        <route edges="4797872 4797871 4006668 23339459 30405358#1 85355912 85355911#0 85355911#1 30405356 5931612 30350450#0 30350450#1 30350450#2 4006702#0 28613737 94344941 94344940#0 94344940#2 -54105725"/>
    </vehicle>
    <vehicle id="105" depart="105.00">
        <route edges="32302591#2 32302591#3 32302591#4 32302591#5 33174302#0 33174302#1 4686970#0 25472257 -30357194 3998612#0 -4006725#1 -4872369 4006724#2"/>
    </vehicle>
    <vehicle id="106" depart="106.00">
        <route edges="-3013109 3013106#0 3013106#1 3013106#2 4319352#1 44069041#0 44069041#1 25472079 30405352 30350445 -33174302#1 -33174302#0 -32270595 -29900561#1 -29900561#0 -4006688#4 -4006688#3 -4006688#2"/>
    </vehicle>
    <vehicle id="107" depart="107.00">
        <route edges="-4006724#2 4006724#2 3998643#0 3998643#1 3998643#2 30350450#2"/>
    </vehicle>
    <vehicle id="108" depart="108.00">
        <route edges="-4006687 8403001 29900561#0 29900561#1 32270595 33174302#0"/>
    </vehicle>
    <vehicle id="109" depart="109.00">
        <route edges="-31241834#1 31241848 31241851#0 31241851#1 31241851#2 -31255203#0 4006702#1 4900043 4900041#1 4900041#2 4900041#3 4900041#0"/>
    </vehicle>
    <vehicle id="110" depart="110.00">
        <route edges="-29900564#1 -29900564#0 29900561#0 9643180"/>
    </vehicle>
    <vehicle id="111" depart="111.00">
        <route edges="4047446#1 25472079 30405352 30350445 -33174302#1 -33174302#0 -32270595 -29900561#1 -29900561#0 -8403001 -4006674#4 -4006674#3 -4006674#2 -4006674#1 -4006674#0 4006674#0"/>
    </vehicle>
    <vehicle id="112" depart="112.00">
        <route edges="28613727#0 28613727#1 -94344940#0 28768072 -28613737 -4006702#0 4319352#1 44069041#0 44069041#1 25472079 30405352 30350445 -33174302#1 -33174302#0 -32270595 -29900561#1 -29900561#0 -8403001 -4006674#4 -4006674#3 -4006674#2 -4006674#1"/>
    </vehicle>
    <vehicle id="113" depart="113.00">
        <route edges="25210699 -4006705#1 4006703#1 28269598 -4006702#2 -4006702#1 -4006702#0"/>
    </vehicle>
    <vehicle id="114" depart="114.00">
        <route edges="30405358#1 85355912 85355911#0 25472101 30405352 19796637 122161390 -30357194 30357194"/>
    </vehicle>
    <vehicle id="115" depart="115.00">
        <route edges="54105725 -94344940#2 -94344940#0 28768072 -28613737 -4006702#0 4319352#1 44069041#0 44069041#1 25472079 30405352 30350445 -33174302#1 -33174302#0 -32270595 8402997 8402998#1 8402998#2 29900564#1 29900564#2 29900564#3 -10425128#1 -10425128#0 4006693#3"/>
    </vehicle>
    <vehicle id="116" depart="116.00">
        <route edges="-3998612#1 3998612#1 3998612#2 3013106#0 3013106#1 3013106#2 4006702#0 4006702#1 4900043 4900041#1 4900041#2"/>
    </vehicle>
    <vehicle id="117" depart="117.00">
        <route edges="5445204#2 -5445204#2 -5445204#1 113939244#2 -126606716 23339459 30405358#1 85355912 85355911#0 85355911#1 30405356 5931612 30350450#0 30350450#1 30350450#2 4006702#0 4006702#1"/>
    </vehicle>
    <vehicle id="118" depart="118.00">
        <route edges="29900564#3 -29900564#3 -29900564#2 -29900564#1 -8402998#2 -8402998#1 -8402997 32270595 33174302#0 33174302#1 4686970#0 4686970#1 122161381 30350448 8364476 30350450#0 -3998645#2 -3998645#1 -4006726#2"/>
    </vehicle>
    <vehicle id="119" depart="119.00">
        <route edges="23570844#2 10419402 -4006693#1 -23605595 -8403007 -29900564#1 -8402998#2 -8402998#1 -8402997 32270595 33174302#0 33174302#1 4686970#0 4686970#1 122161381 30350448 30350449 4047309 30751813 -35842306#1 -35842306#0 -31777493#1 -31777493#0 -4047316"/>
    </vehicle>
    <vehicle id="120" depart="120.00">
        <route edges="-4006672 32302591#0 32302591#1 32302591#2 32302591#3 32302591#4 32302591#5 33174302#0 33174302#1 4686970#0 4686970#1 122161381 30350448 30350449 25472079 30405352 30350445"/>
    </vehicle>
    <vehicle id="121" depart="121.00">
        <route edges="4006726#0 4006726#1 4006726#2 -3998645#0 -3998612#0 30357194 25472299 30350448 30350449 25472079 30405352 30350445 -33174302#1 -33174302#0 -32270595 8402997 8402998#1 8402998#2"/>
    </vehicle>
    <vehicle id="122" depart="122.00">
        <route edges="4006693#0 -23605595 -8403007 -29900564#1 -8402998#2 -8402998#1 -8402997 32270595 33174302#0 33174302#1 4686970#0 4686970#1 122161381 30350448 8364476 30350450#0 30350450#1 30350450#2 4319353"/>
    </vehicle>
    <vehicle id="123" depart="123.00">
        <route edges="-28269598 28269598 -4006702#2 -4006702#1 28613737 94344941 94344940#0 -94344940#0"/>
    </vehicle>
    <vehicle id="124" depart="124.00">
        <route edges="4900043 4900041#1 4900041#2 4900041#3 4900041#0 -4900043 -4006702#1"/>
    </vehicle>
    <vehicle id="125" depart="125.00">
        <route edges="3998613#0 3998613#1 3998613#2 -31353573#1 -31353573#0 -33174302#1 -33174302#0 -32270595 -29900561#1 -29900561#0 -4006688#4 -4006688#3 -4006688#2 -4006688#1 -4006688#0 31401017#1 31401017#2 -31401017#2"/>
    </vehicle>
    <vehicle id="126" depart="126.00">
        <route edges="-31241851#2 31241851#2 -31255203#0 -4006702#0 4319352#1 44069041#0 44069041#1 25472079 30405352 30350445 -33174302#1 -33174302#0 -32270595 -29900561#1 -29900561#0 29900564#0"/>
    </vehicle>
    <vehicle id="127" depart="127.00">
        <route edges="-31720632#0 -4006705#2 -4006705#1 4006703#1 28269598 -4006702#2 -4006702#1 -4006702#0 -3013106#2 -3013106#1 -3013106#0 -10573414#1 4047378 4006724#1 4872369 -4006725#0"/>
    </vehicle>
    <vehicle id="128" depart="128.00">
        <route edges="31241851#2 -31255203#0 4006702#1 4900043 4900041#1 -23350929"/>
    </vehicle>
    <vehicle id="129" depart="129.00">
        <route edges="33174302#0 33174302#1 4686970#0 4686970#1 122161381 30350448 8364476 30350450#0 30350450#1 30350450#2 4006702#0 31255203#0 -31241851#2 -31241851#1 -31241851#0 31241816#3 31241835#1 -31241835#1"/>
    </vehicle>
    <vehicle id="130" depart="130.00">
        <route edges="-8402998#0 -29900565#2 29900565#2"/>
    </vehicle>
    <vehicle id="131" depart="131.00">
        <route edges="-32270592#0 -32270593 4006674#0 4006674#1 4006674#2 4006674#3 4006674#4 8403001 29900561#0 29900561#1 32270595 33174302#0 33174302#1 4686970#0 25472257 -30357194 3998613#0"/>
    </vehicle>
    <vehicle id="132" depart="132.00">
        <route edges="-4006702#1 -4006702#0 4319352#1 44069041#0 44069041#1 4400949 31982182#0 4047241 4797872 4797871 4006668 126606716 113939242#0 5445204#1 -23360299"/>
    </vehicle>
    <vehicle id="133" depart="133.00">
        <route edges="23350930 4900041#3 4900041#0 -4900043 -4006702#1 -4006702#0 -3013106#2 3998615#0 3998615#1 3998615#2 3998615#3"/>
    </vehicle>
    <vehicle id="134" depart="134.00">
        <route edges="4047241 4797872 4797871 4006668 23339459 30405358#1 85355912 85355911#0 25472101 30405352 30350445 -33174302#1 -33174302#0 -32270595 -29900561#1 -29900561#0 -8403001 -4006674#4 -4006674#3 4006684"/>
    </vehicle>
    <vehicle id="135" depart="135.00">
        <route edges="-33174302#1 -33174302#0 -32270595 8402997 8402998#1 8402998#2 29900564#1 8403007 23605595 4006693#1 -10419402 10419402"/>
    </vehicle>
    <vehicle id="136" depart="136.00">
        <route edges="29900561#0 29900561#1 32270595 33174302#0 33174302#1 4686970#0 4686970#1 122161381 30350448 8364476 30350450#0 -3998645#2 -3998645#1 -4006726#2 -4006726#1 4006726#1"/>
    </vehicle>
    <vehicle id="137" depart="137.00">